*SPEF "ieee 1481-1999"
*DESIGN "sar_algo"
*DATE "07:13:14 Friday April 03, 2026"
*VENDOR "The OpenROAD Project"
*PROGRAM "OpenROAD"
*VERSION "dfc4f595dfb2e1c346492ff1f0274abb28725acf"
*DESIGN_FLOW "NAME_SCOPE LOCAL" "PIN_CAP NONE"
*DIVIDER /
*DELIMITER :
*BUS_DELIMITER []
*T_UNIT 1 NS
*C_UNIT 1 PF
*R_UNIT 1 OHM
*L_UNIT 1 HENRY

*NAME_MAP
*1 BN[0]
*2 BN[1]
*3 BN[2]
*4 BN[3]
*5 BN[4]
*6 BN[5]
*7 BN[6]
*8 B[0]
*9 B[1]
*10 B[2]
*11 B[3]
*12 B[4]
*13 B[5]
*14 B[6]
*15 D[0]
*16 D[1]
*17 D[2]
*18 D[3]
*19 D[4]
*20 D[5]
*21 D[6]
*22 D[7]
*23 En
*24 Om
*25 Op
*28 clk_algo
*29 fclk_comp
*30 fclk_in
*31 fclk_samp
*32 fdac_clk
*33 rst
*34 _000_
*35 _001_
*36 _002_
*37 _003_
*38 _004_
*39 _005_
*40 _006_
*41 _007_
*42 _008_
*43 _009_
*44 _010_
*45 _011_
*46 _012_
*47 _013_
*48 _014_
*49 _015_
*50 _016_
*51 _017_
*52 _018_
*53 _019_
*54 _020_
*55 _021_
*56 _022_
*57 _023_
*58 _024_
*59 _025_
*60 _026_
*61 _027_
*62 _028_
*63 _029_
*64 _030_
*65 _031_
*66 _032_
*67 _033_
*68 _034_
*69 _035_
*70 _036_
*71 _037_
*72 _038_
*73 _039_
*74 _040_
*75 _041_
*76 _042_
*77 _043_
*78 _044_
*79 _045_
*80 _046_
*81 _047_
*82 _048_
*83 _049_
*84 _050_
*85 _051_
*86 _052_
*87 _053_
*88 _054_
*89 _055_
*90 _056_
*91 _057_
*92 _058_
*93 _059_
*94 _060_
*95 _061_
*96 _062_
*97 _063_
*98 _064_
*99 _065_
*100 _066_
*101 _067_
*102 _068_
*103 _069_
*104 _070_
*105 _071_
*106 _072_
*107 _073_
*108 _074_
*109 _075_
*110 _076_
*111 _077_
*112 _078_
*113 _079_
*114 _080_
*115 _081_
*116 _082_
*117 _083_
*118 _084_
*119 _085_
*120 _086_
*121 _087_
*122 _088_
*123 _089_
*124 _090_
*125 _091_
*126 _092_
*127 _093_
*128 _094_
*129 _095_
*130 _096_
*131 _097_
*132 _098_
*133 _099_
*134 _100_
*135 _101_
*136 _102_
*137 _103_
*138 clknet_0_fclk_in
*139 clknet_0_fclk_in_regs
*140 clknet_1_0__leaf_fclk_in
*141 clknet_1_0__leaf_fclk_in_regs
*142 clknet_1_1__leaf_fclk_in_regs
*143 cnt\[0\]
*144 cnt\[1\]
*145 cnt\[2\]
*146 cnt\[3\]
*147 counter\[0\]
*148 counter\[1\]
*149 counter\[2\]
*150 counter\[3\]
*151 fclk_in_regs
*152 net1
*153 net10
*154 net11
*155 net12
*156 net13
*157 net14
*158 net15
*159 net16
*160 net17
*161 net18
*162 net19
*163 net2
*164 net20
*165 net21
*166 net22
*167 net23
*168 net24
*169 net25
*170 net26
*171 net27
*172 net28
*173 net29
*174 net3
*175 net30
*176 net31
*177 net32
*178 net33
*179 net34
*180 net35
*181 net36
*182 net37
*183 net38
*184 net39
*185 net4
*186 net40
*187 net41
*188 net42
*189 net43
*190 net44
*191 net45
*192 net46
*193 net47
*194 net48
*195 net49
*196 net5
*197 net50
*198 net51
*199 net6
*200 net7
*201 net8
*202 net9
*203 FILLER_0_110
*204 FILLER_0_123
*205 FILLER_0_15
*206 FILLER_0_182
*207 FILLER_0_189
*208 FILLER_0_200
*209 FILLER_0_207
*210 FILLER_0_214
*211 FILLER_0_22
*212 FILLER_0_221
*213 FILLER_0_225
*214 FILLER_0_231
*215 FILLER_0_238
*216 FILLER_0_242
*217 FILLER_0_249
*218 FILLER_0_256
*219 FILLER_0_267
*220 FILLER_0_274
*221 FILLER_0_281
*222 FILLER_0_288
*223 FILLER_0_29
*224 FILLER_0_295
*225 FILLER_0_303
*226 FILLER_0_36
*227 FILLER_0_4
*228 FILLER_0_77
*229 FILLER_0_79
*230 FILLER_10_0
*231 FILLER_10_102
*232 FILLER_10_109
*233 FILLER_10_116
*234 FILLER_10_128
*235 FILLER_10_135
*236 FILLER_10_14
*237 FILLER_10_142
*238 FILLER_10_157
*239 FILLER_10_164
*240 FILLER_10_181
*241 FILLER_10_188
*242 FILLER_10_21
*243 FILLER_10_222
*244 FILLER_10_224
*245 FILLER_10_255
*246 FILLER_10_28
*247 FILLER_10_289
*248 FILLER_10_296
*249 FILLER_10_303
*250 FILLER_10_307
*251 FILLER_10_35
*252 FILLER_10_42
*253 FILLER_10_49
*254 FILLER_10_56
*255 FILLER_10_63
*256 FILLER_10_7
*257 FILLER_10_70
*258 FILLER_11_0
*259 FILLER_11_14
*260 FILLER_11_171
*261 FILLER_11_199
*262 FILLER_11_206
*263 FILLER_11_21
*264 FILLER_11_244
*265 FILLER_11_251
*266 FILLER_11_28
*267 FILLER_11_289
*268 FILLER_11_296
*269 FILLER_11_303
*270 FILLER_11_307
*271 FILLER_11_35
*272 FILLER_11_42
*273 FILLER_11_49
*274 FILLER_11_56
*275 FILLER_11_63
*276 FILLER_11_7
*277 FILLER_11_70
*278 FILLER_11_77
*279 FILLER_11_79
*280 FILLER_12_107
*281 FILLER_12_114
*282 FILLER_12_118
*283 FILLER_12_122
*284 FILLER_12_129
*285 FILLER_12_133
*286 FILLER_12_139
*287 FILLER_12_146
*288 FILLER_12_150
*289 FILLER_12_157
*290 FILLER_12_164
*291 FILLER_12_171
*292 FILLER_12_179
*293 FILLER_12_186
*294 FILLER_12_19
*295 FILLER_12_193
*296 FILLER_12_200
*297 FILLER_12_207
*298 FILLER_12_214
*299 FILLER_12_219
*300 FILLER_12_226
*301 FILLER_12_230
*302 FILLER_12_235
*303 FILLER_12_242
*304 FILLER_12_249
*305 FILLER_12_26
*306 FILLER_12_267
*307 FILLER_12_274
*308 FILLER_12_281
*309 FILLER_12_288
*310 FILLER_12_299
*311 FILLER_12_33
*312 FILLER_12_40
*313 FILLER_12_47
*314 FILLER_12_54
*315 FILLER_12_59
*316 FILLER_12_66
*317 FILLER_12_73
*318 FILLER_12_8
*319 FILLER_12_80
*320 FILLER_12_87
*321 FILLER_12_91
*322 FILLER_1_11
*323 FILLER_1_153
*324 FILLER_1_18
*325 FILLER_1_181
*326 FILLER_1_218
*327 FILLER_1_225
*328 FILLER_1_25
*329 FILLER_1_264
*330 FILLER_1_271
*331 FILLER_1_278
*332 FILLER_1_285
*333 FILLER_1_292
*334 FILLER_1_299
*335 FILLER_1_303
*336 FILLER_1_32
*337 FILLER_1_39
*338 FILLER_1_4
*339 FILLER_1_80
*340 FILLER_2_0
*341 FILLER_2_132
*342 FILLER_2_14
*343 FILLER_2_159
*344 FILLER_2_170
*345 FILLER_2_204
*346 FILLER_2_21
*347 FILLER_2_211
*348 FILLER_2_218
*349 FILLER_2_225
*350 FILLER_2_232
*351 FILLER_2_239
*352 FILLER_2_246
*353 FILLER_2_250
*354 FILLER_2_255
*355 FILLER_2_262
*356 FILLER_2_269
*357 FILLER_2_276
*358 FILLER_2_28
*359 FILLER_2_283
*360 FILLER_2_290
*361 FILLER_2_297
*362 FILLER_2_304
*363 FILLER_2_308
*364 FILLER_2_35
*365 FILLER_2_42
*366 FILLER_2_49
*367 FILLER_2_7
*368 FILLER_2_80
*369 FILLER_2_82
*370 FILLER_2_94
*371 FILLER_3_0
*372 FILLER_3_14
*373 FILLER_3_178
*374 FILLER_3_185
*375 FILLER_3_190
*376 FILLER_3_195
*377 FILLER_3_202
*378 FILLER_3_209
*379 FILLER_3_21
*380 FILLER_3_216
*381 FILLER_3_223
*382 FILLER_3_230
*383 FILLER_3_237
*384 FILLER_3_244
*385 FILLER_3_251
*386 FILLER_3_258
*387 FILLER_3_265
*388 FILLER_3_272
*389 FILLER_3_279
*390 FILLER_3_28
*391 FILLER_3_286
*392 FILLER_3_293
*393 FILLER_3_300
*394 FILLER_3_307
*395 FILLER_3_35
*396 FILLER_3_42
*397 FILLER_3_49
*398 FILLER_3_51
*399 FILLER_3_7
*400 FILLER_3_87
*401 FILLER_3_91
*402 FILLER_4_11
*403 FILLER_4_166
*404 FILLER_4_18
*405 FILLER_4_217
*406 FILLER_4_224
*407 FILLER_4_231
*408 FILLER_4_238
*409 FILLER_4_245
*410 FILLER_4_25
*411 FILLER_4_252
*412 FILLER_4_259
*413 FILLER_4_266
*414 FILLER_4_273
*415 FILLER_4_280
*416 FILLER_4_287
*417 FILLER_4_294
*418 FILLER_4_301
*419 FILLER_4_32
*420 FILLER_4_39
*421 FILLER_4_4
*422 FILLER_4_46
*423 FILLER_4_63
*424 FILLER_4_97
*425 FILLER_5_0
*426 FILLER_5_105
*427 FILLER_5_14
*428 FILLER_5_152
*429 FILLER_5_180
*430 FILLER_5_191
*431 FILLER_5_198
*432 FILLER_5_205
*433 FILLER_5_21
*434 FILLER_5_212
*435 FILLER_5_219
*436 FILLER_5_226
*437 FILLER_5_233
*438 FILLER_5_240
*439 FILLER_5_247
*440 FILLER_5_254
*441 FILLER_5_261
*442 FILLER_5_268
*443 FILLER_5_275
*444 FILLER_5_28
*445 FILLER_5_282
*446 FILLER_5_289
*447 FILLER_5_296
*448 FILLER_5_303
*449 FILLER_5_307
*450 FILLER_5_35
*451 FILLER_5_42
*452 FILLER_5_49
*453 FILLER_5_56
*454 FILLER_5_63
*455 FILLER_5_7
*456 FILLER_5_70
*457 FILLER_5_77
*458 FILLER_5_91
*459 FILLER_5_98
*460 FILLER_6_0
*461 FILLER_6_104
*462 FILLER_6_111
*463 FILLER_6_113
*464 FILLER_6_117
*465 FILLER_6_14
*466 FILLER_6_142
*467 FILLER_6_153
*468 FILLER_6_160
*469 FILLER_6_171
*470 FILLER_6_178
*471 FILLER_6_185
*472 FILLER_6_189
*473 FILLER_6_21
*474 FILLER_6_226
*475 FILLER_6_233
*476 FILLER_6_240
*477 FILLER_6_247
*478 FILLER_6_254
*479 FILLER_6_261
*480 FILLER_6_268
*481 FILLER_6_275
*482 FILLER_6_28
*483 FILLER_6_282
*484 FILLER_6_289
*485 FILLER_6_296
*486 FILLER_6_303
*487 FILLER_6_307
*488 FILLER_6_35
*489 FILLER_6_42
*490 FILLER_6_49
*491 FILLER_6_56
*492 FILLER_6_63
*493 FILLER_6_7
*494 FILLER_6_70
*495 FILLER_7_11
*496 FILLER_7_126
*497 FILLER_7_128
*498 FILLER_7_144
*499 FILLER_7_153
*500 FILLER_7_18
*501 FILLER_7_193
*502 FILLER_7_200
*503 FILLER_7_207
*504 FILLER_7_214
*505 FILLER_7_221
*506 FILLER_7_228
*507 FILLER_7_233
*508 FILLER_7_240
*509 FILLER_7_247
*510 FILLER_7_25
*511 FILLER_7_254
*512 FILLER_7_261
*513 FILLER_7_268
*514 FILLER_7_275
*515 FILLER_7_282
*516 FILLER_7_289
*517 FILLER_7_296
*518 FILLER_7_303
*519 FILLER_7_32
*520 FILLER_7_39
*521 FILLER_7_4
*522 FILLER_7_46
*523 FILLER_7_53
*524 FILLER_7_60
*525 FILLER_7_67
*526 FILLER_7_74
*527 FILLER_7_81
*528 FILLER_7_88
*529 FILLER_7_92
*530 FILLER_8_0
*531 FILLER_8_103
*532 FILLER_8_110
*533 FILLER_8_117
*534 FILLER_8_124
*535 FILLER_8_126
*536 FILLER_8_14
*537 FILLER_8_156
*538 FILLER_8_163
*539 FILLER_8_170
*540 FILLER_8_177
*541 FILLER_8_184
*542 FILLER_8_21
*543 FILLER_8_215
*544 FILLER_8_217
*545 FILLER_8_255
*546 FILLER_8_262
*547 FILLER_8_269
*548 FILLER_8_276
*549 FILLER_8_28
*550 FILLER_8_283
*551 FILLER_8_290
*552 FILLER_8_297
*553 FILLER_8_304
*554 FILLER_8_308
*555 FILLER_8_35
*556 FILLER_8_42
*557 FILLER_8_7
*558 FILLER_8_79
*559 FILLER_8_86
*560 FILLER_8_88
*561 FILLER_8_94
*562 FILLER_8_98
*563 FILLER_9_102
*564 FILLER_9_109
*565 FILLER_9_11
*566 FILLER_9_116
*567 FILLER_9_123
*568 FILLER_9_130
*569 FILLER_9_132
*570 FILLER_9_136
*571 FILLER_9_138
*572 FILLER_9_153
*573 FILLER_9_160
*574 FILLER_9_177
*575 FILLER_9_18
*576 FILLER_9_184
*577 FILLER_9_191
*578 FILLER_9_195
*579 FILLER_9_207
*580 FILLER_9_214
*581 FILLER_9_228
*582 FILLER_9_230
*583 FILLER_9_235
*584 FILLER_9_242
*585 FILLER_9_249
*586 FILLER_9_25
*587 FILLER_9_256
*588 FILLER_9_263
*589 FILLER_9_270
*590 FILLER_9_277
*591 FILLER_9_284
*592 FILLER_9_291
*593 FILLER_9_298
*594 FILLER_9_32
*595 FILLER_9_39
*596 FILLER_9_4
*597 FILLER_9_46
*598 FILLER_9_53
*599 FILLER_9_55
*600 FILLER_9_60
*601 FILLER_9_67
*602 _104_
*603 _105_
*604 _106_
*605 _107_
*606 _108_
*607 _109_
*608 _110_
*609 _111_
*610 _112_
*611 _113_
*612 _114_
*613 _115_
*614 _116_
*615 _117_
*616 _118_
*617 _119_
*618 _120_
*619 _121_
*620 _122_
*621 _123_
*622 _124_
*623 _125_
*624 _126_
*625 _127_
*626 _128_
*627 _129_
*628 _130_
*629 _131_
*630 _132_
*631 _133_
*632 _134_
*633 _135_
*634 _136_
*635 _137_
*636 _138_
*637 _139_
*638 _140_
*639 _141_
*640 _142_
*641 _143_
*642 _144_
*643 _145_
*644 _146_
*645 _147_
*646 _148_
*647 _149_
*648 _150_
*649 _151_
*650 _152_
*651 _153_
*652 _154_
*653 _155_
*654 _156_
*655 _157_
*656 _158_
*657 _159_
*658 _160_
*659 _161_
*660 _162_
*661 _163_
*662 _164_
*663 _165_
*664 _166_
*665 _167_
*666 _168_
*667 _169_
*668 _170_
*669 _171_
*670 _172_
*671 _173_
*672 _174_
*673 _175_
*674 _176_
*675 _177_
*676 _178_
*677 _179_
*678 _180_
*679 _181_
*680 _182_
*681 _183_
*682 _184_
*683 _185_
*684 _186_
*685 _187_
*686 _188_
*687 _189_
*688 _190_
*689 _191_
*690 _192_
*691 _193_
*692 _194_
*693 _195_
*694 _196_
*695 _197_
*696 _198_
*697 _199_
*698 _200_
*699 _201_
*700 _202_
*701 _203_
*702 _204_
*703 _205_
*704 _206_
*705 _207_
*706 _208_
*707 _209_
*708 _210_
*709 _211_
*710 _212_
*711 _213_
*712 _214_
*713 _215_
*714 _216_
*715 _217_
*716 _218_
*717 _219_
*718 _220_
*719 _221_
*720 _222_
*721 _223_
*722 _224_
*723 _225_
*724 _226_
*725 _227_
*726 _228_
*727 _229_
*728 _230_
*729 _231_
*730 _232_
*731 _233_
*732 _234_
*733 _235_
*734 _236_
*735 _237_
*736 _238_
*737 _239_
*738 _240_
*739 clkbuf_0_fclk_in
*740 clkbuf_0_fclk_in_regs
*741 clkbuf_1_0__f_fclk_in
*742 clkbuf_1_0__f_fclk_in_regs
*743 clkbuf_1_1__f_fclk_in_regs
*744 clkbuf_regs_0_fclk_in
*745 fanout31
*746 fanout32
*747 fanout33
*748 fanout34
*749 fanout35
*750 fanout36
*751 fanout37
*752 fanout38
*753 fanout39
*754 fanout40
*755 fanout41
*756 fanout42
*757 fanout43
*758 hold44
*759 hold45
*760 hold46
*761 hold47
*762 hold48
*763 hold49
*764 hold50
*765 hold51
*766 input1
*767 input2
*768 input3
*769 input4
*770 input5
*771 output10
*772 output11
*773 output12
*774 output13
*775 output14
*776 output15
*777 output16
*778 output17
*779 output18
*780 output19
*781 output20
*782 output21
*783 output22
*784 output23
*785 output24
*786 output25
*787 output26
*788 output27
*789 output28
*790 output29
*791 output30
*792 output6
*793 output7
*794 output8
*795 output9

*PORTS
BN[0] O
BN[1] O
BN[2] O
BN[3] O
BN[4] O
BN[5] O
BN[6] O
B[0] O
B[1] O
B[2] O
B[3] O
B[4] O
B[5] O
B[6] O
D[0] O
D[1] O
D[2] O
D[3] O
D[4] O
D[5] O
D[6] O
D[7] O
En I
Om I
Op I
clk_algo I
fclk_comp O
fclk_in I
fclk_samp O
fdac_clk O
rst I

*D_NET *1 0.00129278
*CONN
*P BN[0] O
*I *792:X O *D sg13g2_buf_1
*CAP
1 BN[0] 0.000646392
2 *792:X 0.000646392
3 BN[0] *768:A 0
*RES
1 *792:X BN[0] 47.8074 
*END

*D_NET *2 0.0007106
*CONN
*P BN[1] O
*I *793:X O *D sg13g2_buf_1
*CAP
1 BN[1] 0.0003553
2 *793:X 0.0003553
*RES
1 *793:X BN[1] 44.1303 
*END

*D_NET *3 0.000746369
*CONN
*P BN[2] O
*I *794:X O *D sg13g2_buf_1
*CAP
1 BN[2] 0.000373185
2 *794:X 0.000373185
*RES
1 *794:X BN[2] 44.3466 
*END

*D_NET *4 0.000782224
*CONN
*P BN[3] O
*I *795:X O *D sg13g2_buf_1
*CAP
1 BN[3] 0.000391112
2 *795:X 0.000391112
*RES
1 *795:X BN[3] 44.5629 
*END

*D_NET *5 0.000546204
*CONN
*P BN[4] O
*I *771:X O *D sg13g2_buf_1
*CAP
1 BN[4] 0.000273102
2 *771:X 0.000273102
*RES
1 *771:X BN[4] 43.4814 
*END

*D_NET *6 0.000546204
*CONN
*P BN[5] O
*I *772:X O *D sg13g2_buf_1
*CAP
1 BN[5] 0.000273102
2 *772:X 0.000273102
*RES
1 *772:X BN[5] 43.4814 
*END

*D_NET *7 0.00145476
*CONN
*P BN[6] O
*I *773:X O *D sg13g2_buf_1
*CAP
1 BN[6] 0.000727381
2 *773:X 0.000727381
3 BN[6] D[0] 0
*RES
1 *773:X BN[6] 49.0125 
*END

*D_NET *8 0.00127907
*CONN
*P B[0] O
*I *774:X O *D sg13g2_buf_1
*CAP
1 B[0] 0.000639534
2 *774:X 0.000639534
3 B[0] *767:A 0
*RES
1 *774:X B[0] 47.9104 
*END

*D_NET *9 0.000736928
*CONN
*P B[1] O
*I *775:X O *D sg13g2_buf_1
*CAP
1 B[1] 0.000368464
2 *775:X 0.000368464
3 B[1] *774:A 0
*RES
1 *775:X B[1] 44.2333 
*END

*D_NET *10 0.000758166
*CONN
*P B[2] O
*I *776:X O *D sg13g2_buf_1
*CAP
1 B[2] 0.000379083
2 *776:X 0.000379083
*RES
1 *776:X B[2] 44.4496 
*END

*D_NET *11 0.000824328
*CONN
*P B[3] O
*I *777:X O *D sg13g2_buf_1
*CAP
1 B[3] 0.000412164
2 *777:X 0.000412164
3 B[3] *159:27 0
*RES
1 *777:X B[3] 44.6659 
*END

*D_NET *12 0.000555767
*CONN
*P B[4] O
*I *778:X O *D sg13g2_buf_1
*CAP
1 B[4] 0.000277884
2 *778:X 0.000277884
*RES
1 *778:X B[4] 43.5844 
*END

*D_NET *13 0.000555767
*CONN
*P B[5] O
*I *779:X O *D sg13g2_buf_1
*CAP
1 B[5] 0.000277884
2 *779:X 0.000277884
*RES
1 *779:X B[5] 43.5844 
*END

*D_NET *14 0.00146245
*CONN
*P B[6] O
*I *780:X O *D sg13g2_buf_1
*CAP
1 B[6] 0.000731227
2 *780:X 0.000731227
3 B[6] D[7] 0
*RES
1 *780:X B[6] 49.1155 
*END

*D_NET *15 0.00143738
*CONN
*P D[0] O
*I *781:X O *D sg13g2_buf_1
*CAP
1 D[0] 0.000718689
2 *781:X 0.000718689
3 BN[6] D[0] 0
*RES
1 *781:X D[0] 28.8374 
*END

*D_NET *16 0.00142956
*CONN
*P D[1] O
*I *782:X O *D sg13g2_buf_1
*CAP
1 D[1] 0.00071478
2 *782:X 0.00071478
*RES
1 *782:X D[1] 28.8374 
*END

*D_NET *17 0.00143254
*CONN
*P D[2] O
*I *783:X O *D sg13g2_buf_1
*CAP
1 D[2] 0.000716269
2 *783:X 0.000716269
3 D[2] *713:RESET_B 0
*RES
1 *783:X D[2] 28.8374 
*END

*D_NET *18 0.00142956
*CONN
*P D[3] O
*I *784:X O *D sg13g2_buf_1
*CAP
1 D[3] 0.00071478
2 *784:X 0.00071478
*RES
1 *784:X D[3] 28.8374 
*END

*D_NET *19 0.00142956
*CONN
*P D[4] O
*I *785:X O *D sg13g2_buf_1
*CAP
1 D[4] 0.00071478
2 *785:X 0.00071478
*RES
1 *785:X D[4] 28.8374 
*END

*D_NET *20 0.00142956
*CONN
*P D[5] O
*I *786:X O *D sg13g2_buf_1
*CAP
1 D[5] 0.00071478
2 *786:X 0.00071478
*RES
1 *786:X D[5] 28.8374 
*END

*D_NET *21 0.00147639
*CONN
*P D[6] O
*I *787:X O *D sg13g2_buf_1
*CAP
1 D[6] 0.000738193
2 *787:X 0.000738193
3 D[6] *666:S 0
*RES
1 *787:X D[6] 29.0846 
*END

*D_NET *22 0.00142956
*CONN
*P D[7] O
*I *788:X O *D sg13g2_buf_1
*CAP
1 D[7] 0.00071478
2 *788:X 0.00071478
3 B[6] D[7] 0
*RES
1 *788:X D[7] 28.8374 
*END

*D_NET *23 0.00275664
*CONN
*P En I
*I *766:A I *D sg13g2_buf_1
*CAP
1 En 0.00115279
2 *766:A 0.00115279
3 *766:A *608:A 0
4 *766:A *733:D 0
5 *766:A *30:22 0
6 *766:A *180:22 0.000274555
7 *766:A *194:14 0.000176508
*RES
1 En *766:A 33.0604 
*END

*D_NET *24 0.00166897
*CONN
*P Om I
*I *767:A I *D sg13g2_buf_1
*CAP
1 Om 0.000794372
2 *767:A 0.000794372
3 *767:A *774:A 0
4 *767:A *163:8 8.02267e-05
5 B[0] *767:A 0
*RES
1 Om *767:A 29.8674 
*END

*D_NET *25 0.00152549
*CONN
*P Op I
*I *768:A I *D sg13g2_buf_1
*CAP
1 Op 0.000762747
2 *768:A 0.000762747
3 BN[0] *768:A 0
*RES
1 Op *768:A 29.167 
*END

*D_NET *28 0.00151067
*CONN
*P clk_algo I
*I *769:A I *D sg13g2_buf_1
*CAP
1 clk_algo 0.000755337
2 *769:A 0.000755337
*RES
1 clk_algo *769:A 29.2365 
*END

*D_NET *29 0.00170365
*CONN
*P fclk_comp O
*I *789:X O *D sg13g2_buf_1
*CAP
1 fclk_comp 0.000827998
2 *789:X 0.000827998
3 fclk_comp *124:55 4.76519e-05
*RES
1 *789:X fclk_comp 29.9601 
*END

*D_NET *30 0.0106591
*CONN
*P fclk_in I
*I *744:A I *D sg13g2_buf_16
*I *739:A I *D sg13g2_buf_16
*CAP
1 fclk_in 0.00251949
2 *744:A 0.000117866
3 *739:A 7.84547e-05
4 *30:50 0.000867969
5 *30:22 0.00164276
6 *30:16 0.00261375
7 *30:10 0.00281882
8 *739:A *608:C 0
9 *739:A *194:14 0
10 *744:A *619:A_N 0
11 *744:A *626:B1 0
12 *744:A *114:6 0
13 *744:A *150:6 0
14 *30:10 *173:27 0
15 *30:10 *174:12 0
16 *30:16 *735:CLK 0
17 *30:16 *770:A 0
18 *30:16 *145:10 0
19 *30:16 *194:8 0
20 *30:16 *196:12 0
21 *30:22 *721:CLK 0
22 *30:22 *733:CLK 0
23 *30:22 *64:10 0
24 *30:22 *65:10 0
25 *30:22 *141:21 0
26 *30:22 *152:25 0
27 *30:22 *179:8 0
28 *30:22 *179:34 0
29 *30:22 *186:14 0
30 *30:22 *194:14 0
31 *30:22 *196:12 0
32 *30:22 *197:40 0
33 *30:50 *610:B 0
34 *30:50 *615:B 0
35 *30:50 *619:A_N 0
36 *30:50 *626:B1 0
37 *30:50 *34:10 0
38 *30:50 *190:12 0
39 *30:50 *190:26 0
40 *766:A *30:22 0
*RES
1 fclk_in *30:10 43.1029 
2 *30:10 *30:16 42.9149 
3 *30:16 *30:22 35.5633 
4 *30:22 *739:A 20.9682 
5 *30:16 *30:50 27.0967 
6 *30:50 *744:A 21.424 
*END

*D_NET *31 0.001379
*CONN
*P fclk_samp O
*I *790:X O *D sg13g2_buf_1
*CAP
1 fclk_samp 0.000689501
2 *790:X 0.000689501
*RES
1 *790:X fclk_samp 28.5181 
*END

*D_NET *32 0.00354686
*CONN
*P fdac_clk O
*I *791:X O *D sg13g2_buf_1
*CAP
1 fdac_clk 0.00160439
2 *791:X 0.00160439
3 fdac_clk *617:B_N 0
4 fdac_clk *732:D 0
5 fdac_clk *732:CLK 0
6 fdac_clk *737:CLK 0.000338082
7 fdac_clk *740:A 0
8 fdac_clk *791:A 0
9 fdac_clk *151:6 0
10 fdac_clk *151:15 0
*RES
1 *791:X fdac_clk 37.8293 
*END

*D_NET *33 0.00229872
*CONN
*P rst I
*I *770:A I *D sg13g2_buf_1
*CAP
1 rst 0.000702638
2 *770:A 0.000422838
3 *33:11 0.00112548
4 *770:A *145:10 4.77702e-05
5 *30:16 *770:A 0
*RES
1 rst *33:11 48.8271 
2 *33:11 *770:A 24.6453 
*END

*D_NET *34 0.00199631
*CONN
*I *759:A I *D sg13g2_dlygate4sd3_1
*I *615:Y O *D sg13g2_nor3_1
*CAP
1 *759:A 0.000155158
2 *615:Y 0.000585081
3 *34:10 0.000740239
4 *759:A *610:B 0
5 *759:A *617:A 0
6 *759:A *737:D 0
7 *759:A *145:10 0.000242186
8 *759:A *196:12 0
9 *34:10 *104:28 0
10 *34:10 *145:10 0
11 *34:10 *196:12 0.000273651
12 *30:50 *34:10 0
*RES
1 *615:Y *34:10 45.3354 
2 *34:10 *759:A 41.8334 
*END

*D_NET *35 0.00304317
*CONN
*I *765:A I *D sg13g2_dlygate4sd3_1
*I *619:B I *D sg13g2_nand3b_1
*I *732:Q O *D sg13g2_dfrbpq_1
*CAP
1 *765:A 0.000299259
2 *619:B 0.000933329
3 *732:Q 0
4 *35:6 0.00123259
5 *619:B *616:A1 0
6 *619:B *619:C 4.77425e-05
7 *619:B *132:41 0.000346272
8 *619:B *190:26 0.000183978
9 *765:A *122:86 0
10 *765:A *181:35 0
11 *765:A *182:39 0
*RES
1 *732:Q *35:6 40 
2 *35:6 *619:B 49.785 
3 *35:6 *765:A 42.8634 
*END

*D_NET *36 0.000980629
*CONN
*I *706:RESET_B I *D sg13g2_dfrbpq_1
*I *607:Y O *D sg13g2_inv_1
*CAP
1 *706:RESET_B 0
2 *607:Y 0.000246958
3 *36:10 0.000246958
4 *36:10 *607:A 0.000144843
5 *36:10 *751:A 0
6 *36:10 *124:16 0
7 *36:10 *156:35 0.000341871
*RES
1 *607:Y *36:10 42.987 
2 *36:10 *706:RESET_B 40 
*END

*D_NET *37 0.000427892
*CONN
*I *707:RESET_B I *D sg13g2_dfrbpq_1
*I *675:Y O *D sg13g2_inv_1
*CAP
1 *707:RESET_B 0.000213946
2 *675:Y 0.000213946
3 *707:RESET_B *182:111 0
*RES
1 *675:Y *707:RESET_B 41.9673 
*END

*D_NET *38 0.000605995
*CONN
*I *708:RESET_B I *D sg13g2_dfrbpq_1
*I *676:Y O *D sg13g2_inv_1
*CAP
1 *708:RESET_B 0.000175082
2 *676:Y 0.000175082
3 *708:RESET_B *124:25 0.000208089
4 *708:RESET_B *177:23 4.77425e-05
5 *708:RESET_B *178:93 0
*RES
1 *676:Y *708:RESET_B 41.751 
*END

*D_NET *39 0.000281286
*CONN
*I *709:RESET_B I *D sg13g2_dfrbpq_1
*I *677:Y O *D sg13g2_inv_1
*CAP
1 *709:RESET_B 0.000140643
2 *677:Y 0.000140643
3 *709:RESET_B *124:94 0
4 *709:RESET_B *188:49 0
*RES
1 *677:Y *709:RESET_B 41.3128 
*END

*D_NET *40 0.000402285
*CONN
*I *710:RESET_B I *D sg13g2_dfrbpq_1
*I *678:Y O *D sg13g2_inv_1
*CAP
1 *710:RESET_B 0.000201143
2 *678:Y 0.000201143
3 *710:RESET_B *678:A 0
4 *710:RESET_B *185:33 0
*RES
1 *678:Y *710:RESET_B 41.751 
*END

*D_NET *41 0.000806538
*CONN
*I *711:RESET_B I *D sg13g2_dfrbpq_1
*I *679:Y O *D sg13g2_inv_1
*CAP
1 *711:RESET_B 0
2 *679:Y 6.08622e-05
3 *41:8 6.08622e-05
4 *41:8 *121:23 0.000342865
5 *41:8 *183:24 0.000341949
*RES
1 *679:Y *41:8 41.5862 
2 *41:8 *711:RESET_B 40 
*END

*D_NET *42 0.000374166
*CONN
*I *712:RESET_B I *D sg13g2_dfrbpq_1
*I *680:Y O *D sg13g2_inv_1
*CAP
1 *712:RESET_B 0.000187083
2 *680:Y 0.000187083
3 *712:RESET_B *712:D 0
4 *712:RESET_B *712:CLK 0
5 *712:RESET_B *720:D 0
*RES
1 *680:Y *712:RESET_B 42.1218 
*END

*D_NET *43 0.000598734
*CONN
*I *713:RESET_B I *D sg13g2_dfrbpq_1
*I *681:Y O *D sg13g2_inv_1
*CAP
1 *713:RESET_B 0.000299367
2 *681:Y 0.000299367
3 *713:RESET_B *681:A 0
4 *713:RESET_B *111:12 0
5 *713:RESET_B *166:12 0
6 *713:RESET_B *178:41 0
7 *713:RESET_B *186:91 0
8 D[2] *713:RESET_B 0
*RES
1 *681:Y *713:RESET_B 43.2033 
*END

*D_NET *44 0.000386541
*CONN
*I *714:RESET_B I *D sg13g2_dfrbpq_1
*I *682:Y O *D sg13g2_inv_1
*CAP
1 *714:RESET_B 0.000169314
2 *682:Y 0.000169314
3 *714:RESET_B *664:B1 4.79124e-05
4 *714:RESET_B *682:A 0
5 *714:RESET_B *714:D 0
*RES
1 *682:Y *714:RESET_B 41.9055 
*END

*D_NET *45 0.000364071
*CONN
*I *715:RESET_B I *D sg13g2_dfrbpq_1
*I *683:Y O *D sg13g2_inv_1
*CAP
1 *715:RESET_B 0.000182036
2 *683:Y 0.000182036
3 *715:RESET_B *715:D 0
4 *715:RESET_B *186:76 0
5 *715:RESET_B *186:91 0
*RES
1 *683:Y *715:RESET_B 40.7617 
*END

*D_NET *46 0.000362691
*CONN
*I *716:RESET_B I *D sg13g2_dfrbpq_1
*I *684:Y O *D sg13g2_inv_1
*CAP
1 *716:RESET_B 0.000181345
2 *684:Y 0.000181345
3 *716:RESET_B *684:A 0
*RES
1 *684:Y *716:RESET_B 41.751 
*END

*D_NET *47 0.000412531
*CONN
*I *717:RESET_B I *D sg13g2_dfrbpq_1
*I *685:Y O *D sg13g2_inv_1
*CAP
1 *717:RESET_B 0.000182484
2 *685:Y 0.000182484
3 *717:RESET_B *177:23 4.7562e-05
4 *717:RESET_B *182:50 0
*RES
1 *685:Y *717:RESET_B 41.9055 
*END

*D_NET *48 0.000371288
*CONN
*I *718:RESET_B I *D sg13g2_dfrbpq_1
*I *686:Y O *D sg13g2_inv_1
*CAP
1 *718:RESET_B 0.000185644
2 *686:Y 0.000185644
3 *718:RESET_B *188:90 0
*RES
1 *686:Y *718:RESET_B 41.9055 
*END

*D_NET *49 0.000412308
*CONN
*I *719:RESET_B I *D sg13g2_dfrbpq_1
*I *687:Y O *D sg13g2_inv_1
*CAP
1 *719:RESET_B 0.000206154
2 *687:Y 0.000206154
3 *719:RESET_B *786:A 0
4 *719:RESET_B *189:14 0
*RES
1 *687:Y *719:RESET_B 42.2145 
*END

*D_NET *50 0.00050995
*CONN
*I *720:RESET_B I *D sg13g2_dfrbpq_1
*I *688:Y O *D sg13g2_inv_1
*CAP
1 *720:RESET_B 0.000150097
2 *688:Y 0.000150097
3 *720:RESET_B *688:A 0.000209756
*RES
1 *688:Y *720:RESET_B 41.751 
*END

*D_NET *51 0.000849174
*CONN
*I *721:RESET_B I *D sg13g2_dfrbpq_1
*I *689:Y O *D sg13g2_inv_1
*CAP
1 *721:RESET_B 0
2 *689:Y 0.000333783
3 *51:8 0.000333783
4 *51:8 *689:A 0
5 *51:8 *122:26 0.000181608
6 *51:8 *140:10 0
7 *51:8 *179:8 0
*RES
1 *689:Y *51:8 42.8222 
2 *51:8 *721:RESET_B 40 
*END

*D_NET *52 0.000403652
*CONN
*I *722:RESET_B I *D sg13g2_dfrbpq_1
*I *690:Y O *D sg13g2_inv_1
*CAP
1 *722:RESET_B 5.80071e-05
2 *690:Y 0.000143819
3 *52:8 0.000201826
4 *722:RESET_B *721:CLK 0
5 *722:RESET_B *138:11 0
6 *52:8 *140:10 0
*RES
1 *690:Y *52:8 41.5862 
2 *52:8 *722:RESET_B 40.5356 
*END

*D_NET *53 0.000362734
*CONN
*I *723:RESET_B I *D sg13g2_dfrbpq_1
*I *691:Y O *D sg13g2_inv_1
*CAP
1 *723:RESET_B 0.000181367
2 *691:Y 0.000181367
3 *723:RESET_B *723:D 0
*RES
1 *691:Y *723:RESET_B 41.9055 
*END

*D_NET *54 0.000247938
*CONN
*I *724:RESET_B I *D sg13g2_dfrbpq_1
*I *692:Y O *D sg13g2_inv_1
*CAP
1 *724:RESET_B 0
2 *692:Y 0.000123969
3 *54:8 0.000123969
*RES
1 *692:Y *54:8 41.5862 
2 *54:8 *724:RESET_B 40 
*END

*D_NET *55 0.000693484
*CONN
*I *725:RESET_B I *D sg13g2_dfrbpq_1
*I *693:Y O *D sg13g2_inv_1
*CAP
1 *725:RESET_B 3.53778e-05
2 *693:Y 0.000114246
3 *55:8 0.000149624
4 *55:8 *165:10 0.000394237
*RES
1 *693:Y *55:8 41.8334 
2 *55:8 *725:RESET_B 40.3193 
*END

*D_NET *56 0.000454498
*CONN
*I *726:RESET_B I *D sg13g2_dfrbpq_1
*I *694:Y O *D sg13g2_inv_1
*CAP
1 *726:RESET_B 0.000122371
2 *694:Y 0.000122371
3 *726:RESET_B *694:A 0.000209756
*RES
1 *694:Y *726:RESET_B 41.4008 
*END

*D_NET *57 0.000409772
*CONN
*I *727:RESET_B I *D sg13g2_dfrbpq_1
*I *695:Y O *D sg13g2_inv_1
*CAP
1 *727:RESET_B 0.000204886
2 *695:Y 0.000204886
3 *727:RESET_B *642:A1 0
4 *727:RESET_B *168:18 0
*RES
1 *695:Y *727:RESET_B 42.2145 
*END

*D_NET *58 0.000755739
*CONN
*I *728:RESET_B I *D sg13g2_dfrbpq_1
*I *696:Y O *D sg13g2_inv_1
*CAP
1 *728:RESET_B 0.000305519
2 *696:Y 0.000305519
3 *728:RESET_B *791:A 0
4 *728:RESET_B *180:103 0.0001447
*RES
1 *696:Y *728:RESET_B 43.4505 
*END

*D_NET *59 0.000528663
*CONN
*I *729:RESET_B I *D sg13g2_dfrbpq_1
*I *697:Y O *D sg13g2_inv_1
*CAP
1 *729:RESET_B 3.38493e-05
2 *697:Y 0.000139635
3 *59:8 0.000173484
4 *729:RESET_B *187:86 0
5 *59:8 *91:10 0.000181695
6 *59:8 *133:45 0
*RES
1 *697:Y *59:8 41.8334 
2 *59:8 *729:RESET_B 40.3193 
*END

*D_NET *60 0.000569188
*CONN
*I *730:RESET_B I *D sg13g2_dfrbpq_1
*I *698:Y O *D sg13g2_inv_1
*CAP
1 *730:RESET_B 0.000179831
2 *698:Y 0.000179831
3 *730:RESET_B *698:A 0
4 *730:RESET_B *111:12 0.000209526
*RES
1 *698:Y *730:RESET_B 41.9982 
*END

*D_NET *61 0.000386035
*CONN
*I *731:RESET_B I *D sg13g2_dfrbpq_1
*I *699:Y O *D sg13g2_inv_1
*CAP
1 *731:RESET_B 0.000193018
2 *699:Y 0.000193018
3 *731:RESET_B *624:B1 0
4 *731:RESET_B *180:44 0
*RES
1 *699:Y *731:RESET_B 41.9982 
*END

*D_NET *62 0.00301327
*CONN
*I *732:RESET_B I *D sg13g2_dfrbpq_1
*I *700:Y O *D sg13g2_inv_1
*CAP
1 *732:RESET_B 0
2 *700:Y 0.000561306
3 *62:10 0.000561306
4 *62:10 *700:A 0.000306524
5 *62:10 *108:10 0.000500737
6 *62:10 *181:16 0.000576283
7 *62:10 *181:35 0.000377108
8 *62:10 *190:26 0.000130011
*RES
1 *700:Y *62:10 46.9113 
2 *62:10 *732:RESET_B 40 
*END

*D_NET *63 0.000414239
*CONN
*I *733:RESET_B I *D sg13g2_dfrbpq_1
*I *701:Y O *D sg13g2_inv_1
*CAP
1 *733:RESET_B 0.000207119
2 *701:Y 0.000207119
3 *733:RESET_B *608:A 0
4 *733:RESET_B *733:D 0
5 *733:RESET_B *152:6 0
6 *733:RESET_B *152:25 0
7 *733:RESET_B *179:34 0
*RES
1 *701:Y *733:RESET_B 41.9982 
*END

*D_NET *64 0.0008053
*CONN
*I *734:RESET_B I *D sg13g2_dfrbpq_1
*I *702:Y O *D sg13g2_inv_1
*CAP
1 *734:RESET_B 3.82423e-05
2 *702:Y 0.00029938
3 *64:10 0.000337623
4 *64:10 *733:CLK 0.000130055
5 *64:10 *734:D 0
6 *64:10 *179:43 0
7 *30:22 *64:10 0
*RES
1 *702:Y *64:10 42.987 
2 *64:10 *734:RESET_B 40.3193 
*END

*D_NET *65 0.00236225
*CONN
*I *735:RESET_B I *D sg13g2_dfrbpq_1
*I *703:Y O *D sg13g2_inv_1
*CAP
1 *735:RESET_B 8.37306e-05
2 *703:Y 0.000984806
3 *65:10 0.00106854
4 *735:RESET_B *735:D 0
5 *735:RESET_B *194:8 0
6 *65:10 *613:A 0
7 *65:10 *613:B 0
8 *65:10 *703:A 0.000112386
9 *65:10 *735:CLK 0
10 *65:10 *753:A 0
11 *65:10 *141:8 0
12 *65:10 *194:49 0.000112791
13 *65:10 *197:40 0
14 *30:22 *65:10 0
*RES
1 *703:Y *65:10 49.167 
2 *65:10 *735:RESET_B 40.7519 
*END

*D_NET *66 0.00177888
*CONN
*I *736:RESET_B I *D sg13g2_dfrbpq_1
*I *704:Y O *D sg13g2_inv_1
*CAP
1 *736:RESET_B 0
2 *704:Y 0.000494868
3 *66:10 0.000494868
4 *66:10 *610:B 0
5 *66:10 *616:A2 0
6 *66:10 *617:A 0
7 *66:10 *732:D 0.000500967
8 *66:10 *98:10 0.000288173
9 *66:10 *190:12 0
*RES
1 *704:Y *66:10 45.6753 
2 *66:10 *736:RESET_B 40 
*END

*D_NET *67 0.00203609
*CONN
*I *737:RESET_B I *D sg13g2_dfrbpq_1
*I *705:Y O *D sg13g2_inv_1
*CAP
1 *737:RESET_B 0
2 *705:Y 0.000714407
3 *67:8 0.000714407
4 *67:8 *106:10 0
5 *67:8 *173:14 0.000395066
6 *67:8 *173:27 0.000212215
*RES
1 *705:Y *67:8 47.2718 
2 *67:8 *737:RESET_B 40 
*END

*D_NET *68 0.000413427
*CONN
*I *706:D I *D sg13g2_dfrbpq_1
*I *674:Y O *D sg13g2_a21oi_1
*CAP
1 *706:D 0.000166835
2 *674:Y 0.000166835
3 *706:D *674:B1 0
4 *706:D *124:16 0
5 *706:D *174:33 7.97574e-05
*RES
1 *674:Y *706:D 41.8746 
*END

*D_NET *69 0.000209127
*CONN
*I *707:D I *D sg13g2_dfrbpq_1
*I *672:X O *D sg13g2_mux2_1
*CAP
1 *707:D 0.000104563
2 *672:X 0.000104563
3 *707:D *672:S 0
4 *707:D *182:111 0
5 *707:D *185:10 0
*RES
1 *672:X *707:D 41.133 
*END

*D_NET *70 0.000267727
*CONN
*I *708:D I *D sg13g2_dfrbpq_1
*I *671:X O *D sg13g2_mux2_1
*CAP
1 *708:D 9.3894e-05
2 *671:X 9.3894e-05
3 *708:D *123:12 7.99388e-05
4 *708:D *182:39 0
*RES
1 *671:X *708:D 41.133 
*END

*D_NET *71 0.000202979
*CONN
*I *709:D I *D sg13g2_dfrbpq_1
*I *670:Y O *D sg13g2_a21oi_1
*CAP
1 *709:D 0.00010149
2 *670:Y 0.00010149
3 *709:D *124:109 0
*RES
1 *670:Y *709:D 41.133 
*END

*D_NET *72 0.000267501
*CONN
*I *710:D I *D sg13g2_dfrbpq_1
*I *668:X O *D sg13g2_mux2_1
*CAP
1 *710:D 9.36372e-05
2 *668:X 9.36372e-05
3 *710:D *668:A1 0
4 *710:D *184:57 8.02269e-05
*RES
1 *668:X *710:D 41.133 
*END

*D_NET *73 0.000558556
*CONN
*I *711:D I *D sg13g2_dfrbpq_1
*I *667:X O *D sg13g2_mux2_1
*CAP
1 *711:D 0.000279278
2 *667:X 0.000279278
3 *711:D *668:A1 0
4 *711:D *183:22 0
5 *711:D *184:57 0
6 *711:D *185:33 0
*RES
1 *667:X *711:D 42.8531 
*END

*D_NET *74 0.00157298
*CONN
*I *712:D I *D sg13g2_dfrbpq_1
*I *666:X O *D sg13g2_mux2_1
*CAP
1 *712:D 0.000447207
2 *666:X 0.000447207
3 *712:D *666:A0 0
4 *712:D *666:A1 0
5 *712:D *688:A 0.00059848
6 *712:D *720:D 8.00842e-05
7 *712:D *121:23 0
8 *712:RESET_B *712:D 0
*RES
1 *666:X *712:D 45.1294 
*END

*D_NET *75 0.00123922
*CONN
*I *713:D I *D sg13g2_dfrbpq_1
*I *665:X O *D sg13g2_mux2_1
*CAP
1 *713:D 0.000209289
2 *665:X 0.000108432
3 *75:8 0.000317721
4 *713:D *178:60 0.00020871
5 *75:8 *155:23 0.000395068
*RES
1 *665:X *75:8 41.8334 
2 *75:8 *713:D 42.0497 
*END

*D_NET *76 0.000774872
*CONN
*I *714:D I *D sg13g2_dfrbpq_1
*I *664:Y O *D sg13g2_a21oi_1
*CAP
1 *714:D 0.000283155
2 *664:Y 0.000283155