* Extracted by KLayout with SG13G2 LVS runset on : 06/03/2026 17:07

.SUBCKT sar_logic A|Op A|clk A|En A|rst A|Om BN[0]|X B[0]|X VSS|gnd A|A1|X|net3
+ D|Y|_016_ A2|B|Y|_090_ B_N|Y|_089_ D|Y|_025_ B1|X|net1 D|Y|_001_ A|X|net4
+ A|B1|X|net29 A1|Y|_047_ A2|Y|_049_ A|X|net71 B|Y|_100_ A|Y|_088_ A|A2|X|net2
+ A|A1|B1|C|Q|counter\[3\] B_N|X|net83 A2|Y|_101_ A|B1|X|net30 A|Q|net5 VDD|vdd
+ BN[1]|X B[1]|X L_HI|RESET_B|net50 L_HI|RESET_B|net56 L_HI|RESET_B|net
+ A|Q|net6 A|Q|net13 CLK|X|clknet_2_0__leaf_clk CLK|X|clknet_2_2__leaf_clk
+ A|Y|_059_ B1|X|net84 A1|B|B1|C|X|net28 A|B1|X|net32 A|X|net86 A|X|net75
+ L_HI|RESET_B|net48 A1|A2|B_N|Y|_028_ L_HI|RESET_B|net44 B|C|Y|_074_
+ A2|B|C|Y|_070_ L_HI|RESET_B|net46 A1|X|net80 D|Y|_017_ B|X|net85 A|Y|_022_
+ A|A2|Q|counter\[0\] A|A1|A_N|B|C|Q|counter\[1\] B1|D|Y|_069_
+ A|B|B2|Q|counter\[2\] B|Y|_084_ A|X|net78 D|X|net79 D|Y|_002_ A|Y|_050_
+ A2|B|Y|_032_ A2|B|C|D|X|net27 B1|Y|_058_ A|Y|_024_ A2|Y|_029_ D|X|net87
+ B[2]|X BN[2]|X D|Y|_023_ A|B|B1|Y|_068_ A|B|C|X|_091_ A|A1|X|_071_ A|Y|_083_
+ A|Q|net14 A|Q|net7 A2|A_N|B|X|_027_ A|A2|Y|_034_ L_HI|RESET_B|net36
+ B|B2|C|Y|_079_ A_N|B1|Y|_072_ A1|A2|Y|_060_ L_HI|RESET_B|net57 A|B|Y|_073_
+ L_HI|RESET_B|net42 B1|Y|_051_ A|B|B1|Y|_078_ A|B|Y|_076_ A|B|D|X|_085_
+ A|Q|net8 B|C|D|Y|_097_ A2|B|C|Y|_092_ A2|X|_075_ B|X|net76 D|Y|_018_
+ A|A1|X|net33 C|D|Y|_030_ B|B_N|C|X|_077_ A2|Y|_033_ A|X|net70 D|Y|_015_
+ A|X|net69 A1|Y|_061_ A|A1|Y|_087_ A|Y|_082_ A|Q|net15 A|Y|_046_ C|D|Y|_026_
+ D|Y|_003_ BN[3]|X L_HI|RESET_B|net55 B[3]|X A2|A_N|B|Y|_035_ A1|A2|Y|_031_
+ L_HI|RESET_B|net54 L_HI|RESET_B|net40 A2|Y|_055_ A|B|X|_081_ D|Y|_000_
+ A2|Y|_095_ A|Q|net12 A|X|clknet_0_clk B|X|net74 A1|A2|B|Y|_093_ B1|X|net81
+ B1|D|X|_048_ C|Y|_096_ A|Q|net16 A1|X|net82 A1|A2|B_N|Y|_094_ A1|Y|_052_
+ B|X|net73 A2|D|Y|_038_ C|Y|_080_ A1|Y|_036_ A2|Y|_037_ A|B1|X|net31
+ A2|Y|_044_ D|Y|_019_ B1|D|X|_098_ A1|A2|Y|_099_ A2|Y|_057_ D|Y|_004_
+ A2|Y|_053_ B|C|Y|_086_ L_HI|RESET_B|net53 A|X|net67 L_HI|RESET_B|net38
+ B|Y|_040_ A1|A2|Y|_042_ L_HI|RESET_B|net49 A1|A2|Y|_039_ B|Y|_043_ BN[4]|X
+ D|Y|_007_ Y A1|Y|_056_ B|Y|_045_ A2|Y|_041_ A|CLK|X|clknet_2_3__leaf_clk
+ D|Y|_006_ A|Q|net18 B[4]|X A|Q|net9 A1|Y|_067_ A|CLK|X|clknet_2_1__leaf_clk
+ A|X|net77 A|Q|net11 B1|X|net60 A|X|net72 A|Q|net19 A|Q|net21 A|Q|net17
+ A|Q|net26 A1|Y|_066_ A|X|net68 D|Y|_020_ D|Y|_010_ A1|Y|_064_ D|Y|_011_
+ D|Y|_005_ D|Y|_012_ D|Y|_013_ L_HI|RESET_B|net47 A|X|net66 A|X|net65
+ D|Y|_009_ L_HI|RESET_B|net43 A1|Y|_054_ A|X|net63 D|Y|_021_
+ L_HI|RESET_B|net52 A1|Y|_063_ L_HI|RESET_B|net51 A1|Y|_062_ D|Y|_014_
+ L_HI|RESET_B|net58 L_HI|RESET_B|net45 L_HI|RESET_B|net34 L_HI|RESET_B|net41
+ L_HI|RESET_B|net39 L_HI|RESET_B|net35 A|Q|net20 A|Q|net10 A|Q|net22 A|Q|net23
+ A|Q|net24 A|Q|net25 B_N|X|net59 D|Y|_008_ A1|Y|_065_ A|X|net62
+ L_HI|RESET_B|net37 BN[5]|X BN[6]|X D[0]|X D[1]|X D[2]|X D[3]|X D[4]|X Y$1
+ D[5]|X D[6]|X D[7]|X B[6]|X B[5]|X A|X|net64 A|X|net61
M$1 VSS|gnd \$33 \$32 VSS|gnd sg13_lv_nmos L=0.13u W=0.795u AS=0.2043375p
+ AD=0.274275p PS=1.585u PD=2.28u
M$2 VSS|gnd \$34 \$34 VSS|gnd sg13_lv_nmos L=0.13u W=0.3u AS=0.2043375p
+ AD=0.111p PS=1.585u PD=1.34u
M$3 VSS|gnd \$40 \$39 VSS|gnd sg13_lv_nmos L=0.13u W=0.795u AS=0.2043375p
+ AD=0.274275p PS=1.585u PD=2.28u
M$4 VSS|gnd \$41 \$41 VSS|gnd sg13_lv_nmos L=0.13u W=0.3u AS=0.2043375p
+ AD=0.111p PS=1.585u PD=1.34u
M$5 BN[0]|X \$19 VSS|gnd VSS|gnd sg13_lv_nmos L=0.13u W=0.74u AS=0.2886p
+ AD=0.14875p PS=2.26u PD=1.16u
M$6 VSS|gnd A|Q|net5 \$19 VSS|gnd sg13_lv_nmos L=0.13u W=0.55u AS=0.14875p
+ AD=0.187p PS=1.16u PD=1.78u
M$7 VSS|gnd A|Op \$20 VSS|gnd sg13_lv_nmos L=0.13u W=0.55u AS=0.14875p
+ AD=0.187p PS=1.16u PD=1.78u
M$8 VSS|gnd \$20 A|A1|X|net3 VSS|gnd sg13_lv_nmos L=0.13u W=0.74u AS=0.14875p
+ AD=0.2886p PS=1.16u PD=2.26u
M$9 B1|X|net1 \$35 VSS|gnd VSS|gnd sg13_lv_nmos L=0.13u W=0.74u AS=0.2886p
+ AD=0.14875p PS=2.26u PD=1.16u
M$10 VSS|gnd A|En \$35 VSS|gnd sg13_lv_nmos L=0.13u W=0.55u AS=0.14875p
+ AD=0.187p PS=1.16u PD=1.78u
M$11 A|X|net4 \$42 VSS|gnd VSS|gnd sg13_lv_nmos L=0.13u W=0.74u AS=0.2886p
+ AD=0.14875p PS=2.26u PD=1.16u
M$12 VSS|gnd A|rst \$42 VSS|gnd sg13_lv_nmos L=0.13u W=0.55u AS=0.14875p
+ AD=0.187p PS=1.16u PD=1.78u
M$13 A|A2|X|net2 \$43 VSS|gnd VSS|gnd sg13_lv_nmos L=0.13u W=0.74u AS=0.2886p
+ AD=0.14875p PS=2.26u PD=1.16u
M$14 VSS|gnd A|Om \$43 VSS|gnd sg13_lv_nmos L=0.13u W=0.55u AS=0.14875p
+ AD=0.187p PS=1.16u PD=1.78u
M$15 VSS|gnd A|Q|net12 \$44 VSS|gnd sg13_lv_nmos L=0.13u W=0.55u AS=0.14875p
+ AD=0.187p PS=1.16u PD=1.78u
M$16 VSS|gnd \$44 B[0]|X VSS|gnd sg13_lv_nmos L=0.13u W=0.74u AS=0.14875p
+ AD=0.2886p PS=1.16u PD=2.26u
M$17 VSS|gnd VDD|vdd VSS|gnd VSS|gnd sg13_lv_nmos L=1u W=241.5u AS=65.541p
+ AD=65.541p PS=684.64u PD=684.64u
M$19 A1|Y|_047_ A|X|net71 \$47 VSS|gnd sg13_lv_nmos L=0.13u W=0.74u AS=0.2516p
+ AD=0.1406p PS=2.16u PD=1.12u
M$20 \$47 B|Y|_100_ VSS|gnd VSS|gnd sg13_lv_nmos L=0.13u W=0.74u AS=0.1406p
+ AD=0.2516p PS=1.12u PD=2.16u
M$21 VSS|gnd A|Y|_088_ A2|B|Y|_090_ VSS|gnd sg13_lv_nmos L=0.13u W=0.74u
+ AS=0.2516p AD=0.1406p PS=2.16u PD=1.12u
M$22 A2|B|Y|_090_ \$27 VSS|gnd VSS|gnd sg13_lv_nmos L=0.13u W=0.74u AS=0.1406p
+ AD=0.17255p PS=1.12u PD=1.25u
M$23 VSS|gnd B_N|Y|_089_ \$27 VSS|gnd sg13_lv_nmos L=0.13u W=0.55u AS=0.17255p
+ AD=0.187p PS=1.25u PD=1.78u
M$24 VSS|gnd A|B1|X|net32 D|Y|_025_ VSS|gnd sg13_lv_nmos L=0.13u W=0.74u
+ AS=0.2516p AD=0.1406p PS=2.16u PD=1.12u
M$25 D|Y|_025_ \$30 VSS|gnd VSS|gnd sg13_lv_nmos L=0.13u W=0.74u AS=0.1406p
+ AD=0.17255p PS=1.12u PD=1.25u
M$26 VSS|gnd B_N|X|net83 \$30 VSS|gnd sg13_lv_nmos L=0.13u W=0.55u AS=0.17255p
+ AD=0.187p PS=1.25u PD=1.78u
M$27 B_N|X|net83 \$36 VSS|gnd VSS|gnd sg13_lv_nmos L=0.13u W=0.74u AS=0.2516p
+ AD=0.1426p PS=2.16u PD=1.16u
M$28 VSS|gnd \$15 \$36 VSS|gnd sg13_lv_nmos L=0.5u W=0.42u AS=0.1426p
+ AD=0.1428p PS=1.16u PD=1.52u
M$29 \$15 \$16 VSS|gnd VSS|gnd sg13_lv_nmos L=0.5u W=0.42u AS=0.1428p
+ AD=0.0798p PS=1.52u PD=0.8u
M$30 VSS|gnd A|A1|B1|C|Q|counter\[3\] \$16 VSS|gnd sg13_lv_nmos L=0.13u W=0.42u
+ AS=0.0798p AD=0.1428p PS=0.8u PD=1.52u
M$93 VSS|gnd A|Q|net6 \$71 VSS|gnd sg13_lv_nmos L=0.13u W=0.55u AS=0.14875p
+ AD=0.187p PS=1.16u PD=1.78u
M$94 BN[1]|X \$71 VSS|gnd VSS|gnd sg13_lv_nmos L=0.13u W=0.74u AS=0.2886p
+ AD=0.14875p PS=2.26u PD=1.16u
M$123 \$72 \$76 \$73 VSS|gnd sg13_lv_nmos L=0.13u W=0.42u AS=0.1296p AD=0.0798p
+ PS=1.52u PD=0.8u
M$124 \$73 \$75 \$109 VSS|gnd sg13_lv_nmos L=0.13u W=0.42u AS=0.0798p
+ AD=0.2373p PS=0.8u PD=1.97u
M$125 VSS|gnd A|B1|X|net29 D|Y|_016_ VSS|gnd sg13_lv_nmos L=0.13u W=0.74u
+ AS=0.2516p AD=0.1406p PS=2.16u PD=1.12u
M$126 D|Y|_016_ A1|Y|_047_ \$48 VSS|gnd sg13_lv_nmos L=0.13u W=0.74u AS=0.1406p
+ AD=0.1406p PS=1.12u PD=1.12u
M$127 \$48 A2|Y|_049_ VSS|gnd VSS|gnd sg13_lv_nmos L=0.13u W=0.74u AS=0.1406p
+ AD=0.2516p PS=1.12u PD=2.16u
M$128 \$75 \$76 VSS|gnd VSS|gnd sg13_lv_nmos L=0.13u W=0.74u AS=0.2516p
+ AD=0.317325p PS=2.16u PD=1.805u
M$129 VSS|gnd CLK|X|clknet_2_0__leaf_clk \$76 VSS|gnd sg13_lv_nmos L=0.13u
+ W=0.74u AS=0.317325p AD=0.2516p PS=1.805u PD=2.16u
M$130 \$110 \$76 \$77 VSS|gnd sg13_lv_nmos L=0.13u W=0.42u AS=0.1428p
+ AD=0.12665p PS=1.52u PD=1.145u
M$131 \$77 \$75 \$74 VSS|gnd sg13_lv_nmos L=0.13u W=0.74u AS=0.12665p
+ AD=0.3473p PS=1.145u PD=2.71u
M$132 \$79 \$77 VSS|gnd VSS|gnd sg13_lv_nmos L=0.13u W=0.74u AS=0.2516p
+ AD=0.1406p PS=2.16u PD=1.12u
M$133 VSS|gnd \$79 A|Q|net6 VSS|gnd sg13_lv_nmos L=0.13u W=0.74u AS=0.1406p
+ AD=0.2516p PS=1.12u PD=2.16u
M$134 VSS|gnd \$81 \$80 VSS|gnd sg13_lv_nmos L=0.5u W=0.42u AS=0.1426p
+ AD=0.1428p PS=1.16u PD=1.52u
M$135 A|X|net71 \$80 VSS|gnd VSS|gnd sg13_lv_nmos L=0.13u W=0.74u AS=0.2516p
+ AD=0.1426p PS=2.16u PD=1.16u
M$136 VSS|gnd A|A2|X|net2 \$46 VSS|gnd sg13_lv_nmos L=0.13u W=0.74u AS=0.2516p
+ AD=0.1406p PS=2.16u PD=1.12u
M$137 \$46 A|A1|X|net33 B_N|Y|_089_ VSS|gnd sg13_lv_nmos L=0.13u W=0.74u
+ AS=0.1406p AD=0.1406p PS=1.12u PD=1.12u
M$138 B_N|Y|_089_ A|A1|B1|C|Q|counter\[3\] VSS|gnd VSS|gnd sg13_lv_nmos L=0.13u
+ W=0.74u AS=0.1406p AD=0.2516p PS=1.12u PD=2.16u
M$139 \$83 \$87 \$84 VSS|gnd sg13_lv_nmos L=0.13u W=0.42u AS=0.1296p AD=0.0798p
+ PS=1.52u PD=0.8u
M$140 \$84 \$86 \$111 VSS|gnd sg13_lv_nmos L=0.13u W=0.42u AS=0.0798p
+ AD=0.2373p PS=0.8u PD=1.97u
M$141 \$86 \$87 VSS|gnd VSS|gnd sg13_lv_nmos L=0.13u W=0.74u AS=0.2516p
+ AD=0.317325p PS=2.16u PD=1.805u
M$142 VSS|gnd CLK|X|clknet_2_2__leaf_clk \$87 VSS|gnd sg13_lv_nmos L=0.13u
+ W=0.74u AS=0.317325p AD=0.2516p PS=1.805u PD=2.16u
M$143 \$112 \$87 \$88 VSS|gnd sg13_lv_nmos L=0.13u W=0.42u AS=0.1428p
+ AD=0.12665p PS=1.52u PD=1.145u
M$144 \$88 \$86 \$85 VSS|gnd sg13_lv_nmos L=0.13u W=0.74u AS=0.12665p
+ AD=0.3473p PS=1.145u PD=2.71u
M$145 \$90 \$88 VSS|gnd VSS|gnd sg13_lv_nmos L=0.13u W=0.74u AS=0.2516p
+ AD=0.1406p PS=2.16u PD=1.12u
M$146 VSS|gnd \$90 A|A1|B1|C|Q|counter\[3\] VSS|gnd sg13_lv_nmos L=0.13u
+ W=0.74u AS=0.1406p AD=0.2516p PS=1.12u PD=2.16u
M$147 VSS|gnd A2|Y|_101_ \$45 VSS|gnd sg13_lv_nmos L=0.13u W=0.74u AS=0.2516p
+ AD=0.1406p PS=2.16u PD=1.12u
M$148 \$45 A1|A2|Y|_099_ D|Y|_001_ VSS|gnd sg13_lv_nmos L=0.13u W=0.74u
+ AS=0.1406p AD=0.1406p PS=1.12u PD=1.12u
M$149 D|Y|_001_ A|B1|X|net30 VSS|gnd VSS|gnd sg13_lv_nmos L=0.13u W=0.74u
+ AS=0.1406p AD=0.2516p PS=1.12u PD=2.16u
M$150 \$91 \$95 \$92 VSS|gnd sg13_lv_nmos L=0.13u W=0.42u AS=0.1296p AD=0.0798p
+ PS=1.52u PD=0.8u
M$151 \$92 \$94 \$113 VSS|gnd sg13_lv_nmos L=0.13u W=0.42u AS=0.0798p
+ AD=0.2373p PS=0.8u PD=1.97u
M$152 \$94 \$95 VSS|gnd VSS|gnd sg13_lv_nmos L=0.13u W=0.74u AS=0.2516p
+ AD=0.317325p PS=2.16u PD=1.805u
M$153 VSS|gnd CLK|X|clknet_2_2__leaf_clk \$95 VSS|gnd sg13_lv_nmos L=0.13u
+ W=0.74u AS=0.317325p AD=0.2516p PS=1.805u PD=2.16u
M$154 \$114 \$95 \$96 VSS|gnd sg13_lv_nmos L=0.13u W=0.42u AS=0.1428p
+ AD=0.12665p PS=1.52u PD=1.145u
M$155 \$96 \$94 \$93 VSS|gnd sg13_lv_nmos L=0.13u W=0.74u AS=0.12665p
+ AD=0.3473p PS=1.145u PD=2.71u
M$156 \$98 \$96 VSS|gnd VSS|gnd sg13_lv_nmos L=0.13u W=0.74u AS=0.2516p
+ AD=0.1406p PS=2.16u PD=1.12u
M$157 VSS|gnd \$98 A|Q|net13 VSS|gnd sg13_lv_nmos L=0.13u W=0.74u AS=0.1406p
+ AD=0.2516p PS=1.12u PD=2.16u
M$188 \$100 A|Q|net13 VSS|gnd VSS|gnd sg13_lv_nmos L=0.13u W=0.55u AS=0.187p
+ AD=0.14875p PS=1.78u PD=1.16u
M$189 VSS|gnd \$100 B[1]|X VSS|gnd sg13_lv_nmos L=0.13u W=0.74u AS=0.14875p
+ AD=0.2886p PS=1.16u PD=2.26u
M$221 VSS|gnd \$73 \$74 VSS|gnd sg13_lv_nmos L=0.13u W=0.74u AS=0.1626p
+ AD=0.2516p PS=1.415u PD=2.16u
M$222 \$72 D|Y|_016_ \$117 VSS|gnd sg13_lv_nmos L=0.13u W=0.42u AS=0.1428p
+ AD=0.0609p PS=1.52u PD=0.71u
M$223 VSS|gnd L_HI|RESET_B|net50 \$117 VSS|gnd sg13_lv_nmos L=0.13u W=0.42u
+ AS=0.1626p AD=0.0609p PS=1.415u PD=0.71u
M$224 VSS|gnd \$133 \$132 VSS|gnd sg13_lv_nmos L=0.13u W=0.795u AS=0.2043375p
+ AD=0.274275p PS=1.585u PD=2.28u
M$225 VSS|gnd \$134 \$134 VSS|gnd sg13_lv_nmos L=0.13u W=0.3u AS=0.2043375p
+ AD=0.111p PS=1.585u PD=1.34u
M$226 VSS|gnd L_HI|RESET_B|net50 \$118 VSS|gnd sg13_lv_nmos L=0.13u W=0.42u
+ AS=0.1701p AD=0.0378p PS=1.65u PD=0.6u
M$227 \$118 \$74 \$109 VSS|gnd sg13_lv_nmos L=0.13u W=0.42u AS=0.0378p
+ AD=0.1428p PS=0.6u PD=1.52u
M$228 VSS|gnd A|B1|X|net32 \$135 VSS|gnd sg13_lv_nmos L=0.13u W=0.55u
+ AS=0.14875p AD=0.187p PS=1.16u PD=1.78u
M$229 VSS|gnd \$135 A|B1|X|net29 VSS|gnd sg13_lv_nmos L=0.13u W=0.74u
+ AS=0.14875p AD=0.2886p PS=1.16u PD=2.26u
M$230 A1|B|B1|C|X|net28 \$137 VSS|gnd VSS|gnd sg13_lv_nmos L=0.13u W=0.74u
+ AS=0.2886p AD=0.14875p PS=2.26u PD=1.16u
M$231 VSS|gnd A|X|net86 \$137 VSS|gnd sg13_lv_nmos L=0.13u W=0.55u AS=0.14875p
+ AD=0.187p PS=1.16u PD=1.78u
M$234 \$110 \$78 VSS|gnd VSS|gnd sg13_lv_nmos L=0.13u W=0.42u AS=0.1428p
+ AD=0.0798p PS=1.52u PD=0.8u
M$235 VSS|gnd L_HI|RESET_B|net50 \$119 VSS|gnd sg13_lv_nmos L=0.13u W=0.42u
+ AS=0.0798p AD=0.0378p PS=0.8u PD=0.6u
M$236 \$119 \$77 \$78 VSS|gnd sg13_lv_nmos L=0.13u W=0.42u AS=0.0378p
+ AD=0.1428p PS=0.6u PD=1.52u
M$241 \$81 \$82 VSS|gnd VSS|gnd sg13_lv_nmos L=0.5u W=0.42u AS=0.1428p
+ AD=0.0798p PS=1.52u PD=0.8u
M$242 VSS|gnd A|Q|net6 \$82 VSS|gnd sg13_lv_nmos L=0.13u W=0.42u AS=0.0798p
+ AD=0.1428p PS=0.8u PD=1.52u
M$243 VSS|gnd \$84 \$85 VSS|gnd sg13_lv_nmos L=0.13u W=0.74u AS=0.1626p
+ AD=0.2516p PS=1.415u PD=2.16u
M$244 \$83 D|Y|_025_ \$121 VSS|gnd sg13_lv_nmos L=0.13u W=0.42u AS=0.1428p
+ AD=0.0609p PS=1.52u PD=0.71u
M$245 VSS|gnd L_HI|RESET_B|net56 \$121 VSS|gnd sg13_lv_nmos L=0.13u W=0.42u
+ AS=0.1626p AD=0.0609p PS=1.415u PD=0.71u
M$246 A|Y|_088_ B1|X|net1 \$128 VSS|gnd sg13_lv_nmos L=0.15u W=0.74u AS=0.2516p
+ AD=0.1406p PS=2.16u PD=1.12u
M$247 \$128 A|A2|X|net2 VSS|gnd VSS|gnd sg13_lv_nmos L=0.15u W=0.74u AS=0.1406p
+ AD=0.1406p PS=1.12u PD=1.12u
M$248 VSS|gnd A|A1|X|net33 \$128 VSS|gnd sg13_lv_nmos L=0.15u W=0.74u
+ AS=0.1406p AD=0.2516p PS=1.12u PD=2.16u
M$249 VSS|gnd L_HI|RESET_B|net56 \$122 VSS|gnd sg13_lv_nmos L=0.13u W=0.42u
+ AS=0.1701p AD=0.0378p PS=1.65u PD=0.6u
M$250 \$122 \$85 \$111 VSS|gnd sg13_lv_nmos L=0.13u W=0.42u AS=0.0378p
+ AD=0.1428p PS=0.6u PD=1.52u
M$255 \$112 \$89 VSS|gnd VSS|gnd sg13_lv_nmos L=0.13u W=0.42u AS=0.1428p
+ AD=0.0798p PS=1.52u PD=0.8u
M$256 VSS|gnd L_HI|RESET_B|net56 \$123 VSS|gnd sg13_lv_nmos L=0.13u W=0.42u
+ AS=0.0798p AD=0.0378p PS=0.8u PD=0.6u
M$257 \$123 \$88 \$89 VSS|gnd sg13_lv_nmos L=0.13u W=0.42u AS=0.0378p
+ AD=0.1428p PS=0.6u PD=1.52u
M$259 VSS|gnd B|Y|_100_ \$146 VSS|gnd sg13_lv_nmos L=0.13u W=0.74u AS=0.2516p
+ AD=0.1406p PS=2.16u PD=1.12u
M$260 \$146 A|X|net75 A2|Y|_101_ VSS|gnd sg13_lv_nmos L=0.13u W=0.74u
+ AS=0.1406p AD=0.2516p PS=1.12u PD=2.16u
M$263 VSS|gnd \$92 \$93 VSS|gnd sg13_lv_nmos L=0.13u W=0.74u AS=0.1626p
+ AD=0.2516p PS=1.415u PD=2.16u
M$264 \$91 D|Y|_001_ \$124 VSS|gnd sg13_lv_nmos L=0.13u W=0.42u AS=0.1428p
+ AD=0.0609p PS=1.52u PD=0.71u
M$265 VSS|gnd L_HI|RESET_B|net \$124 VSS|gnd sg13_lv_nmos L=0.13u W=0.42u
+ AS=0.1626p AD=0.0609p PS=1.415u PD=0.71u
M$266 VSS|gnd L_HI|RESET_B|net \$125 VSS|gnd sg13_lv_nmos L=0.13u W=0.42u
+ AS=0.1701p AD=0.0378p PS=1.65u PD=0.6u
M$267 \$125 \$93 \$113 VSS|gnd sg13_lv_nmos L=0.13u W=0.42u AS=0.0378p
+ AD=0.1428p PS=0.6u PD=1.52u
M$269 A|X|net75 \$140 VSS|gnd VSS|gnd sg13_lv_nmos L=0.13u W=0.74u AS=0.2516p
+ AD=0.1426p PS=2.16u PD=1.16u
M$270 VSS|gnd \$141 \$140 VSS|gnd sg13_lv_nmos L=0.5u W=0.42u AS=0.1426p
+ AD=0.1428p PS=1.16u PD=1.52u
M$271 \$141 \$129 VSS|gnd VSS|gnd sg13_lv_nmos L=0.5u W=0.42u AS=0.1428p
+ AD=0.0798p PS=1.52u PD=0.8u
M$272 VSS|gnd A|Q|net13 \$129 VSS|gnd sg13_lv_nmos L=0.13u W=0.42u AS=0.0798p
+ AD=0.1428p PS=0.8u PD=1.52u
M$273 \$114 \$97 VSS|gnd VSS|gnd sg13_lv_nmos L=0.13u W=0.42u AS=0.1428p
+ AD=0.0798p PS=1.52u PD=0.8u
M$274 VSS|gnd L_HI|RESET_B|net \$126 VSS|gnd sg13_lv_nmos L=0.13u W=0.42u
+ AS=0.0798p AD=0.0378p PS=0.8u PD=0.6u
M$275 \$126 \$96 \$97 VSS|gnd sg13_lv_nmos L=0.13u W=0.42u AS=0.0378p
+ AD=0.1428p PS=0.6u PD=1.52u
M$276 VSS|gnd \$143 \$142 VSS|gnd sg13_lv_nmos L=0.13u W=0.795u AS=0.2043375p
+ AD=0.274275p PS=1.585u PD=2.28u
M$277 VSS|gnd \$144 \$144 VSS|gnd sg13_lv_nmos L=0.13u W=0.3u AS=0.2043375p
+ AD=0.111p PS=1.585u PD=1.34u
M$321 \$205 \$205 VSS|gnd VSS|gnd sg13_lv_nmos L=0.13u W=0.3u AS=0.111p
+ AD=0.2043375p PS=1.34u PD=1.585u
M$322 VSS|gnd \$158 \$198 VSS|gnd sg13_lv_nmos L=0.13u W=0.795u AS=0.2043375p
+ AD=0.274275p PS=1.585u PD=2.28u
M$323 \$162 \$161 VSS|gnd VSS|gnd sg13_lv_nmos L=0.5u W=0.42u AS=0.1428p
+ AD=0.1426p PS=1.52u PD=1.16u
M$324 VSS|gnd \$162 A1|X|net80 VSS|gnd sg13_lv_nmos L=0.13u W=0.74u AS=0.1426p
+ AD=0.2516p PS=1.16u PD=2.16u
M$325 VSS|gnd A1|A2|B_N|Y|_028_ \$165 VSS|gnd sg13_lv_nmos L=0.13u W=0.55u
+ AS=0.17255p AD=0.187p PS=1.25u PD=1.78u
M$326 VSS|gnd A|Y|_050_ D|Y|_017_ VSS|gnd sg13_lv_nmos L=0.13u W=0.74u
+ AS=0.2516p AD=0.1406p PS=2.16u PD=1.12u
M$327 D|Y|_017_ \$165 VSS|gnd VSS|gnd sg13_lv_nmos L=0.13u W=0.74u AS=0.1406p
+ AD=0.17255p PS=1.12u PD=1.25u
M$332 A|A2|Y|_034_ A|B|B1|Y|_068_ \$222 VSS|gnd sg13_lv_nmos L=0.13u W=0.74u
+ AS=0.2516p AD=0.1406p PS=2.16u PD=1.12u
M$333 \$222 A2|B|Y|_032_ VSS|gnd VSS|gnd sg13_lv_nmos L=0.13u W=0.74u
+ AS=0.1406p AD=0.2516p PS=1.12u PD=2.16u
M$334 VSS|gnd \$168 \$167 VSS|gnd sg13_lv_nmos L=0.5u W=0.42u AS=0.1426p
+ AD=0.1428p PS=1.16u PD=1.52u
M$335 B|X|net85 \$167 VSS|gnd VSS|gnd sg13_lv_nmos L=0.13u W=0.74u AS=0.2516p
+ AD=0.1426p PS=2.16u PD=1.16u
M$336 VSS|gnd A2|B|C|D|X|net27 \$223 VSS|gnd sg13_lv_nmos L=0.13u W=0.74u
+ AS=0.2516p AD=0.1406p PS=2.16u PD=1.12u
M$337 \$223 A1|B|B1|C|X|net28 A|Y|_022_ VSS|gnd sg13_lv_nmos L=0.13u W=0.74u
+ AS=0.1406p AD=0.1406p PS=1.12u PD=1.12u
M$338 A|Y|_022_ B1|Y|_058_ VSS|gnd VSS|gnd sg13_lv_nmos L=0.13u W=0.74u
+ AS=0.1406p AD=0.2516p PS=1.12u PD=2.16u
M$339 VSS|gnd B1|X|net84 A|Y|_059_ VSS|gnd sg13_lv_nmos L=0.13u W=0.74u
+ AS=0.2516p AD=0.1406p PS=2.16u PD=1.12u
M$340 A|Y|_059_ A1|B|B1|C|X|net28 \$145 VSS|gnd sg13_lv_nmos L=0.13u W=0.74u
+ AS=0.1406p AD=0.1406p PS=1.12u PD=1.12u
M$341 \$145 A2|B|Y|_090_ VSS|gnd VSS|gnd sg13_lv_nmos L=0.13u W=0.74u
+ AS=0.1406p AD=0.2516p PS=1.12u PD=2.16u
M$342 \$172 \$176 \$174 VSS|gnd sg13_lv_nmos L=0.13u W=0.42u AS=0.1296p
+ AD=0.0798p PS=1.52u PD=0.8u
M$343 \$174 \$175 \$207 VSS|gnd sg13_lv_nmos L=0.13u W=0.42u AS=0.0798p
+ AD=0.2373p PS=0.8u PD=1.97u
M$344 \$175 \$176 VSS|gnd VSS|gnd sg13_lv_nmos L=0.13u W=0.74u AS=0.2516p
+ AD=0.317325p PS=2.16u PD=1.805u
M$345 VSS|gnd CLK|X|clknet_2_0__leaf_clk \$176 VSS|gnd sg13_lv_nmos L=0.13u
+ W=0.74u AS=0.317325p AD=0.2516p PS=1.805u PD=2.16u
M$346 \$208 \$176 \$177 VSS|gnd sg13_lv_nmos L=0.13u W=0.42u AS=0.1428p
+ AD=0.12665p PS=1.52u PD=1.145u
M$347 \$177 \$175 \$173 VSS|gnd sg13_lv_nmos L=0.13u W=0.74u AS=0.12665p
+ AD=0.3473p PS=1.145u PD=2.71u
M$348 \$179 \$177 VSS|gnd VSS|gnd sg13_lv_nmos L=0.13u W=0.74u AS=0.2516p
+ AD=0.1406p PS=2.16u PD=1.12u
M$349 VSS|gnd \$179 A|A2|Q|counter\[0\] VSS|gnd sg13_lv_nmos L=0.13u W=0.74u
+ AS=0.1406p AD=0.2516p PS=1.12u PD=2.16u
M$354 VSS|gnd A|A1|A_N|B|C|Q|counter\[1\] \$227 VSS|gnd sg13_lv_nmos L=0.13u
+ W=0.74u AS=0.2516p AD=0.1406p PS=2.16u PD=1.12u
M$355 \$227 A|A1|B1|C|Q|counter\[3\] B1|D|Y|_069_ VSS|gnd sg13_lv_nmos L=0.13u
+ W=0.74u AS=0.1406p AD=0.2516p PS=1.12u PD=2.16u
M$356 B|C|Y|_074_ A|A1|B1|C|Q|counter\[3\] \$229 VSS|gnd sg13_lv_nmos L=0.13u
+ W=0.74u AS=0.2516p AD=0.1406p PS=2.16u PD=1.12u
M$357 \$229 A1|B|B1|C|X|net28 \$228 VSS|gnd sg13_lv_nmos L=0.13u W=0.74u
+ AS=0.1406p AD=0.1406p PS=1.12u PD=1.12u
M$358 \$228 A2|B|C|Y|_070_ VSS|gnd VSS|gnd sg13_lv_nmos L=0.13u W=0.74u
+ AS=0.1406p AD=0.2886p PS=1.12u PD=2.26u
M$359 VSS|gnd A|A2|Q|counter\[0\] \$230 VSS|gnd sg13_lv_nmos L=0.13u W=0.74u
+ AS=0.2516p AD=0.0962p PS=2.16u PD=1u
M$360 \$230 A|A1|A_N|B|C|Q|counter\[1\] B|Y|_084_ VSS|gnd sg13_lv_nmos L=0.13u
+ W=0.74u AS=0.0962p AD=0.2664p PS=1u PD=1.46u
M$361 B|Y|_084_ A|B|B2|Q|counter\[2\] \$231 VSS|gnd sg13_lv_nmos L=0.13u
+ W=0.74u AS=0.2664p AD=0.13875p PS=1.46u PD=1.115u
M$362 \$231 B1|D|Y|_069_ VSS|gnd VSS|gnd sg13_lv_nmos L=0.13u W=0.74u
+ AS=0.13875p AD=0.2553p PS=1.115u PD=2.17u
M$363 A2|B|C|Y|_070_ A|A1|B1|C|Q|counter\[3\] \$233 VSS|gnd sg13_lv_nmos
+ L=0.13u W=0.74u AS=0.2516p AD=0.1406p PS=2.16u PD=1.12u
M$364 \$233 A|B|B2|Q|counter\[2\] \$232 VSS|gnd sg13_lv_nmos L=0.13u W=0.74u
+ AS=0.1406p AD=0.1406p PS=1.12u PD=1.12u
M$365 \$232 A|A1|A_N|B|C|Q|counter\[1\] VSS|gnd VSS|gnd sg13_lv_nmos L=0.13u
+ W=0.74u AS=0.1406p AD=0.2886p PS=1.12u PD=2.26u
M$370 VSS|gnd \$188 \$187 VSS|gnd sg13_lv_nmos L=0.5u W=0.42u AS=0.1426p
+ AD=0.1428p PS=1.16u PD=1.52u
M$371 D|X|net79 \$187 VSS|gnd VSS|gnd sg13_lv_nmos L=0.13u W=0.74u AS=0.2516p
+ AD=0.1426p PS=2.16u PD=1.16u
M$372 VSS|gnd \$191 \$190 VSS|gnd sg13_lv_nmos L=0.5u W=0.42u AS=0.1426p
+ AD=0.1428p PS=1.16u PD=1.52u
M$373 A|X|net78 \$190 VSS|gnd VSS|gnd sg13_lv_nmos L=0.13u W=0.74u AS=0.2516p
+ AD=0.1426p PS=2.16u PD=1.16u
M$374 VSS|gnd A2|Y|_029_ \$234 VSS|gnd sg13_lv_nmos L=0.13u W=0.74u AS=0.2516p
+ AD=0.1406p PS=2.16u PD=1.12u
M$375 \$234 A1|A2|B_N|Y|_028_ D|Y|_002_ VSS|gnd sg13_lv_nmos L=0.13u W=0.74u
+ AS=0.1406p AD=0.1406p PS=1.12u PD=1.12u
M$376 D|Y|_002_ A|B1|X|net30 VSS|gnd VSS|gnd sg13_lv_nmos L=0.13u W=0.74u
+ AS=0.1406p AD=0.2516p PS=1.12u PD=2.16u
M$403 BN[2]|X \$261 VSS|gnd VSS|gnd sg13_lv_nmos L=0.13u W=0.74u AS=0.2886p
+ AD=0.14875p PS=2.26u PD=1.16u
M$404 VSS|gnd A|Q|net7 \$261 VSS|gnd sg13_lv_nmos L=0.13u W=0.55u AS=0.14875p
+ AD=0.187p PS=1.16u PD=1.78u
M$405 A|Q|net7 \$243 VSS|gnd VSS|gnd sg13_lv_nmos L=0.13u W=0.74u AS=0.2516p
+ AD=0.1406p PS=2.16u PD=1.12u
M$406 VSS|gnd \$262 \$243 VSS|gnd sg13_lv_nmos L=0.13u W=0.74u AS=0.1406p
+ AD=0.2516p PS=1.12u PD=2.16u
M$407 \$244 \$262 \$296 VSS|gnd sg13_lv_nmos L=0.13u W=0.42u AS=0.1428p
+ AD=0.0378p PS=1.52u PD=0.6u
M$408 \$296 L_HI|RESET_B|net46 VSS|gnd VSS|gnd sg13_lv_nmos L=0.13u W=0.42u
+ AS=0.0378p AD=0.0798p PS=0.6u PD=0.8u
M$409 VSS|gnd \$244 \$245 VSS|gnd sg13_lv_nmos L=0.13u W=0.42u AS=0.0798p
+ AD=0.1428p PS=0.8u PD=1.52u
M$410 \$235 \$263 \$262 VSS|gnd sg13_lv_nmos L=0.13u W=0.74u AS=0.3473p
+ AD=0.12665p PS=2.71u PD=1.145u
M$411 \$262 \$320 \$245 VSS|gnd sg13_lv_nmos L=0.13u W=0.42u AS=0.12665p
+ AD=0.1428p PS=1.145u PD=1.52u
M$413 \$160 A|Q|net7 VSS|gnd VSS|gnd sg13_lv_nmos L=0.13u W=0.42u AS=0.1428p
+ AD=0.0798p PS=1.52u PD=0.8u
M$414 VSS|gnd \$160 \$161 VSS|gnd sg13_lv_nmos L=0.5u W=0.42u AS=0.0798p
+ AD=0.1428p PS=0.8u PD=1.52u
M$415 \$264 \$235 \$298 VSS|gnd sg13_lv_nmos L=0.13u W=0.42u AS=0.1428p
+ AD=0.0378p PS=1.52u PD=0.6u
M$416 \$298 L_HI|RESET_B|net46 VSS|gnd VSS|gnd sg13_lv_nmos L=0.13u W=0.42u
+ AS=0.0378p AD=0.1701p PS=0.6u PD=1.65u
M$417 VSS|gnd L_HI|RESET_B|net46 \$300 VSS|gnd sg13_lv_nmos L=0.13u W=0.42u
+ AS=0.1626p AD=0.0609p PS=1.415u PD=0.71u
M$418 \$300 D|Y|_017_ \$265 VSS|gnd sg13_lv_nmos L=0.13u W=0.42u AS=0.0609p
+ AD=0.1428p PS=0.71u PD=1.52u
M$419 VSS|gnd \$266 \$235 VSS|gnd sg13_lv_nmos L=0.13u W=0.74u AS=0.1626p
+ AD=0.2516p PS=1.415u PD=2.16u
M$420 \$246 A1|X|net80 VSS|gnd VSS|gnd sg13_lv_nmos L=0.15u W=0.74u AS=0.2516p
+ AD=0.1406p PS=2.16u PD=1.12u
M$421 VSS|gnd A2|A_N|B|X|_027_ \$246 VSS|gnd sg13_lv_nmos L=0.15u W=0.74u
+ AS=0.1406p AD=0.1406p PS=1.12u PD=1.12u
M$422 \$246 A|B|B1|Y|_068_ A|Y|_050_ VSS|gnd sg13_lv_nmos L=0.15u W=0.74u
+ AS=0.1406p AD=0.2516p PS=1.12u PD=2.16u
M$424 VSS|gnd A|A2|Y|_034_ D|Y|_023_ VSS|gnd sg13_lv_nmos L=0.13u W=0.74u
+ AS=0.2516p AD=0.1406p PS=2.16u PD=1.12u
M$425 D|Y|_023_ B|X|net85 VSS|gnd VSS|gnd sg13_lv_nmos L=0.13u W=0.74u
+ AS=0.1406p AD=0.2516p PS=1.12u PD=2.16u
M$426 \$248 D|Y|_023_ \$303 VSS|gnd sg13_lv_nmos L=0.13u W=0.42u AS=0.1428p
+ AD=0.0609p PS=1.52u PD=0.71u
M$427 \$303 L_HI|RESET_B|net36 VSS|gnd VSS|gnd sg13_lv_nmos L=0.13u W=0.42u
+ AS=0.0609p AD=0.1626p PS=0.71u PD=1.415u
M$428 VSS|gnd \$323 \$236 VSS|gnd sg13_lv_nmos L=0.13u W=0.74u AS=0.1626p
+ AD=0.2516p PS=1.415u PD=2.16u
M$430 VSS|gnd L_HI|RESET_B|net36 \$304 VSS|gnd sg13_lv_nmos L=0.13u W=0.42u
+ AS=0.1701p AD=0.0378p PS=1.65u PD=0.6u
M$431 \$304 \$236 \$268 VSS|gnd sg13_lv_nmos L=0.13u W=0.42u AS=0.0378p
+ AD=0.1428p PS=0.6u PD=1.52u
M$432 \$270 \$237 \$249 VSS|gnd sg13_lv_nmos L=0.13u W=0.42u AS=0.12665p
+ AD=0.1428p PS=1.145u PD=1.52u
M$433 \$236 \$269 \$270 VSS|gnd sg13_lv_nmos L=0.13u W=0.74u AS=0.3473p
+ AD=0.12665p PS=2.71u PD=1.145u
M$434 \$168 \$169 VSS|gnd VSS|gnd sg13_lv_nmos L=0.5u W=0.42u AS=0.1428p
+ AD=0.0798p PS=1.52u PD=0.8u
M$435 VSS|gnd A|Y|_059_ \$169 VSS|gnd sg13_lv_nmos L=0.13u W=0.42u AS=0.0798p
+ AD=0.1428p PS=0.8u PD=1.52u
M$436 \$249 \$250 VSS|gnd VSS|gnd sg13_lv_nmos L=0.13u W=0.42u AS=0.1428p
+ AD=0.0798p PS=1.52u PD=0.8u
M$437 VSS|gnd L_HI|RESET_B|net36 \$307 VSS|gnd sg13_lv_nmos L=0.13u W=0.42u
+ AS=0.0798p AD=0.0378p PS=0.8u PD=0.6u
M$438 \$307 \$270 \$250 VSS|gnd sg13_lv_nmos L=0.13u W=0.42u AS=0.0378p
+ AD=0.1428p PS=0.6u PD=1.52u
M$439 \$251 \$270 VSS|gnd VSS|gnd sg13_lv_nmos L=0.13u W=0.74u AS=0.2516p
+ AD=0.1406p PS=2.16u PD=1.12u
M$440 VSS|gnd \$251 A|A1|A_N|B|C|Q|counter\[1\] VSS|gnd sg13_lv_nmos L=0.13u
+ W=0.74u AS=0.1406p AD=0.2516p PS=1.12u PD=2.16u
M$441 VSS|gnd \$174 \$173 VSS|gnd sg13_lv_nmos L=0.13u W=0.74u AS=0.1626p
+ AD=0.2516p PS=1.415u PD=2.16u
M$442 \$172 D|X|net87 \$224 VSS|gnd sg13_lv_nmos L=0.13u W=0.42u AS=0.1428p
+ AD=0.0609p PS=1.52u PD=0.71u
M$443 VSS|gnd L_HI|RESET_B|net44 \$224 VSS|gnd sg13_lv_nmos L=0.13u W=0.42u
+ AS=0.1626p AD=0.0609p PS=1.415u PD=0.71u
M$444 D|X|net87 \$271 VSS|gnd VSS|gnd sg13_lv_nmos L=0.13u W=0.74u AS=0.2516p
+ AD=0.1426p PS=2.16u PD=1.16u
M$445 VSS|gnd \$272 \$271 VSS|gnd sg13_lv_nmos L=0.5u W=0.42u AS=0.1426p
+ AD=0.1428p PS=1.16u PD=1.52u
M$446 VSS|gnd L_HI|RESET_B|net44 \$225 VSS|gnd sg13_lv_nmos L=0.13u W=0.42u
+ AS=0.1701p AD=0.0378p PS=1.65u PD=0.6u
M$447 \$225 \$173 \$207 VSS|gnd sg13_lv_nmos L=0.13u W=0.42u AS=0.0378p
+ AD=0.1428p PS=0.6u PD=1.52u
M$448 \$272 \$273 VSS|gnd VSS|gnd sg13_lv_nmos L=0.5u W=0.42u AS=0.1428p
+ AD=0.0798p PS=1.52u PD=0.8u
M$449 VSS|gnd A|Y|_022_ \$273 VSS|gnd sg13_lv_nmos L=0.13u W=0.42u AS=0.0798p
+ AD=0.1428p PS=0.8u PD=1.52u
M$450 B1|Y|_058_ A|B|B1|Y|_068_ \$252 VSS|gnd sg13_lv_nmos L=0.15u W=0.74u
+ AS=0.2516p AD=0.1406p PS=2.16u PD=1.12u
M$451 \$252 A2|B|Y|_090_ VSS|gnd VSS|gnd sg13_lv_nmos L=0.15u W=0.74u
+ AS=0.1406p AD=0.1406p PS=1.12u PD=1.12u
M$452 VSS|gnd A1|B|B1|C|X|net28 \$252 VSS|gnd sg13_lv_nmos L=0.15u W=0.74u
+ AS=0.1406p AD=0.2516p PS=1.12u PD=2.16u
M$453 \$208 \$178 VSS|gnd VSS|gnd sg13_lv_nmos L=0.13u W=0.42u AS=0.1428p
+ AD=0.0798p PS=1.52u PD=0.8u
M$454 VSS|gnd L_HI|RESET_B|net44 \$226 VSS|gnd sg13_lv_nmos L=0.13u W=0.42u
+ AS=0.0798p AD=0.0378p PS=0.8u PD=0.6u
M$455 \$226 \$177 \$178 VSS|gnd sg13_lv_nmos L=0.13u W=0.42u AS=0.0378p
+ AD=0.1428p PS=0.6u PD=1.52u
M$456 A|X|net86 \$276 VSS|gnd VSS|gnd sg13_lv_nmos L=0.13u W=0.74u AS=0.2516p
+ AD=0.1426p PS=2.16u PD=1.16u
M$457 VSS|gnd \$277 \$276 VSS|gnd sg13_lv_nmos L=0.5u W=0.42u AS=0.1426p
+ AD=0.1428p PS=1.16u PD=1.52u
M$458 \$277 \$278 VSS|gnd VSS|gnd sg13_lv_nmos L=0.5u W=0.42u AS=0.1428p
+ AD=0.0798p PS=1.52u PD=0.8u
M$459 VSS|gnd A|A2|Q|counter\[0\] \$278 VSS|gnd sg13_lv_nmos L=0.13u W=0.42u
+ AS=0.0798p AD=0.1428p PS=0.8u PD=1.52u
M$460 VSS|gnd \$280 \$279 VSS|gnd sg13_lv_nmos L=0.13u W=0.795u AS=0.2043375p
+ AD=0.274275p PS=1.585u PD=2.28u
M$461 VSS|gnd \$281 \$281 VSS|gnd sg13_lv_nmos L=0.13u W=0.3u AS=0.2043375p
+ AD=0.111p PS=1.585u PD=1.34u
M$462 VSS|gnd A|A1|A_N|B|C|Q|counter\[1\] \$283 VSS|gnd sg13_lv_nmos L=0.13u
+ W=0.55u AS=0.18575p AD=0.187p PS=1.26u PD=1.78u
M$463 VSS|gnd A|A1|B1|C|Q|counter\[3\] \$318 VSS|gnd sg13_lv_nmos L=0.13u
+ W=0.74u AS=0.18575p AD=0.1406p PS=1.26u PD=1.12u
M$464 \$318 A1|B|B1|C|X|net28 \$317 VSS|gnd sg13_lv_nmos L=0.13u W=0.74u
+ AS=0.1406p AD=0.1406p PS=1.12u PD=1.12u
M$465 \$317 \$283 B|B2|C|Y|_079_ VSS|gnd sg13_lv_nmos L=0.13u W=0.74u
+ AS=0.1406p AD=0.3404p PS=1.12u PD=2.4u
M$466 VSS|gnd B1|D|Y|_069_ \$314 VSS|gnd sg13_lv_nmos L=0.13u W=0.74u
+ AS=0.2516p AD=0.1406p PS=2.16u PD=1.12u
M$467 \$314 A1|B|B1|C|X|net28 \$313 VSS|gnd sg13_lv_nmos L=0.13u W=0.74u
+ AS=0.1406p AD=0.1406p PS=1.12u PD=1.12u
M$468 \$313 A|A1|A_N|B|C|Q|counter\[1\] \$312 VSS|gnd sg13_lv_nmos L=0.13u
+ W=0.74u AS=0.1406p AD=0.1406p PS=1.12u PD=1.12u
M$469 \$312 A|B|B2|Q|counter\[2\] A|B|Y|_073_ VSS|gnd sg13_lv_nmos L=0.13u
+ W=0.74u AS=0.1406p AD=0.2516p PS=1.12u PD=2.16u
M$470 A2|B|Y|_032_ \$286 \$310 VSS|gnd sg13_lv_nmos L=0.13u W=0.74u AS=0.333p
+ AD=0.1406p PS=2.38u PD=1.12u
M$471 \$310 A|B|C|X|_091_ VSS|gnd VSS|gnd sg13_lv_nmos L=0.13u W=0.74u
+ AS=0.1406p AD=0.14505p PS=1.12u PD=1.15u
M$472 VSS|gnd A_N|B1|Y|_072_ \$286 VSS|gnd sg13_lv_nmos L=0.13u W=0.55u
+ AS=0.14505p AD=0.187p PS=1.15u PD=1.78u
M$473 A1|A2|Y|_060_ A|X|net78 VSS|gnd VSS|gnd sg13_lv_nmos L=0.13u W=0.74u
+ AS=0.2516p AD=0.2516p PS=2.16u PD=2.16u
M$475 \$253 D|X|net79 \$306 VSS|gnd sg13_lv_nmos L=0.13u W=0.42u AS=0.1428p
+ AD=0.0609p PS=1.52u PD=0.71u
M$476 \$306 L_HI|RESET_B|net48 VSS|gnd VSS|gnd sg13_lv_nmos L=0.13u W=0.42u
+ AS=0.0609p AD=0.1626p PS=0.71u PD=1.415u
M$477 VSS|gnd \$331 \$238 VSS|gnd sg13_lv_nmos L=0.13u W=0.74u AS=0.1626p
+ AD=0.2516p PS=1.415u PD=2.16u
M$478 VSS|gnd L_HI|RESET_B|net48 \$305 VSS|gnd sg13_lv_nmos L=0.13u W=0.42u
+ AS=0.1701p AD=0.0378p PS=1.65u PD=0.6u
M$479 \$305 \$238 \$288 VSS|gnd sg13_lv_nmos L=0.13u W=0.42u AS=0.0378p
+ AD=0.1428p PS=0.6u PD=1.52u
M$480 \$188 \$189 VSS|gnd VSS|gnd sg13_lv_nmos L=0.5u W=0.42u AS=0.1428p
+ AD=0.0798p PS=1.52u PD=0.8u
M$481 VSS|gnd A|Y|_024_ \$189 VSS|gnd sg13_lv_nmos L=0.13u W=0.42u AS=0.0798p
+ AD=0.1428p PS=0.8u PD=1.52u
M$482 \$191 \$192 VSS|gnd VSS|gnd sg13_lv_nmos L=0.5u W=0.42u AS=0.1428p
+ AD=0.0798p PS=1.52u PD=0.8u
M$483 VSS|gnd A|B|B2|Q|counter\[2\] \$192 VSS|gnd sg13_lv_nmos L=0.13u W=0.42u
+ AS=0.0798p AD=0.1428p PS=0.8u PD=1.52u
M$484 \$290 \$239 \$254 VSS|gnd sg13_lv_nmos L=0.13u W=0.42u AS=0.12665p
+ AD=0.1428p PS=1.145u PD=1.52u
M$485 \$238 \$289 \$290 VSS|gnd sg13_lv_nmos L=0.13u W=0.74u AS=0.3473p
+ AD=0.12665p PS=2.71u PD=1.145u
M$486 \$254 \$255 VSS|gnd VSS|gnd sg13_lv_nmos L=0.13u W=0.42u AS=0.1428p
+ AD=0.0798p PS=1.52u PD=0.8u
M$487 VSS|gnd L_HI|RESET_B|net48 \$302 VSS|gnd sg13_lv_nmos L=0.13u W=0.42u
+ AS=0.0798p AD=0.0378p PS=0.8u PD=0.6u
M$488 \$302 \$290 \$255 VSS|gnd sg13_lv_nmos L=0.13u W=0.42u AS=0.0378p
+ AD=0.1428p PS=0.6u PD=1.52u
M$489 \$256 \$290 VSS|gnd VSS|gnd sg13_lv_nmos L=0.13u W=0.74u AS=0.2516p
+ AD=0.1406p PS=2.16u PD=1.12u
M$490 VSS|gnd \$256 A|B|B2|Q|counter\[2\] VSS|gnd sg13_lv_nmos L=0.13u W=0.74u
+ AS=0.1406p AD=0.2516p PS=1.12u PD=2.16u
M$491 \$257 D|Y|_002_ \$301 VSS|gnd sg13_lv_nmos L=0.13u W=0.42u AS=0.1428p
+ AD=0.0609p PS=1.52u PD=0.71u
M$492 \$301 L_HI|RESET_B|net57 VSS|gnd VSS|gnd sg13_lv_nmos L=0.13u W=0.42u
+ AS=0.0609p AD=0.1626p PS=0.71u PD=1.415u
M$493 VSS|gnd \$332 \$240 VSS|gnd sg13_lv_nmos L=0.13u W=0.74u AS=0.1626p
+ AD=0.2516p PS=1.415u PD=2.16u
M$494 VSS|gnd L_HI|RESET_B|net57 \$299 VSS|gnd sg13_lv_nmos L=0.13u W=0.42u
+ AS=0.1701p AD=0.0378p PS=1.65u PD=0.6u
M$495 \$299 \$240 \$291 VSS|gnd sg13_lv_nmos L=0.13u W=0.42u AS=0.0378p
+ AD=0.1428p PS=0.6u PD=1.52u
M$496 \$293 \$241 \$258 VSS|gnd sg13_lv_nmos L=0.13u W=0.42u AS=0.12665p
+ AD=0.1428p PS=1.145u PD=1.52u
M$497 \$240 \$292 \$293 VSS|gnd sg13_lv_nmos L=0.13u W=0.74u AS=0.3473p