* Extracted by KLayout with SG13G2 LVS runset on : 03/04/2026 09:33

.SUBCKT sar_algo Op En rst clk_algo fclk_samp Om VSS B[0] BN[0] fclk_comp
+ fclk_in VDD BN[1] B[1] B[2] BN[2] fdac_clk BN[3] B[3] B[4] BN[4] BN[5] BN[6]
+ D[0] D[1] D[2] D[3] D[4] D[5] D[6] D[7] B[6] B[5]
M$1 \$34 \$257 VSS VSS sg13_lv_nmos L=0.15u W=0.74u AS=0.2516p AD=0.1406p
+ PS=2.16u PD=1.12u
M$2 VSS \$119 \$34 VSS sg13_lv_nmos L=0.15u W=0.74u AS=0.1406p AD=0.1406p
+ PS=1.12u PD=1.12u
M$3 \$34 \$90 \$35 VSS sg13_lv_nmos L=0.15u W=0.74u AS=0.1406p AD=0.2516p
+ PS=1.12u PD=2.16u
M$4 BN[0] \$40 VSS VSS sg13_lv_nmos L=0.13u W=0.74u AS=0.2886p AD=0.14875p
+ PS=2.26u PD=1.16u
M$5 VSS \$46 \$40 VSS sg13_lv_nmos L=0.13u W=0.55u AS=0.14875p AD=0.187p
+ PS=1.16u PD=1.78u
M$6 VSS Op \$41 VSS sg13_lv_nmos L=0.13u W=0.55u AS=0.14875p AD=0.187p PS=1.16u
+ PD=1.78u
M$7 VSS \$41 \$10 VSS sg13_lv_nmos L=0.13u W=0.74u AS=0.14875p AD=0.2886p
+ PS=1.16u PD=2.26u
M$8 VSS \$83 \$42 VSS sg13_lv_nmos L=0.13u W=0.55u AS=0.14875p AD=0.187p
+ PS=1.16u PD=1.78u
M$9 VSS \$42 fclk_comp VSS sg13_lv_nmos L=0.13u W=0.74u AS=0.14875p AD=0.2886p
+ PS=1.16u PD=2.26u
M$10 \$23 \$61 VSS VSS sg13_lv_nmos L=0.13u W=0.74u AS=0.2886p AD=0.14875p
+ PS=2.26u PD=1.16u
M$11 VSS rst \$61 VSS sg13_lv_nmos L=0.13u W=0.55u AS=0.14875p AD=0.187p
+ PS=1.16u PD=1.78u
M$12 \$27 \$26 \$82 VSS sg13_lv_nmos L=0.13u W=0.42u AS=0.1428p AD=0.0609p
+ PS=1.52u PD=0.71u
M$13 \$82 \$64 VSS VSS sg13_lv_nmos L=0.13u W=0.42u AS=0.0609p AD=0.1626p
+ PS=0.71u PD=1.415u
M$14 VSS \$88 \$28 VSS sg13_lv_nmos L=0.13u W=0.74u AS=0.1626p AD=0.2516p
+ PS=1.415u PD=2.16u
M$15 \$30 \$31 VSS VSS sg13_lv_nmos L=0.13u W=0.42u AS=0.1428p AD=0.0798p
+ PS=1.52u PD=0.8u
M$16 VSS \$64 \$80 VSS sg13_lv_nmos L=0.13u W=0.42u AS=0.0798p AD=0.0378p
+ PS=0.8u PD=0.6u
M$17 \$80 \$66 \$31 VSS sg13_lv_nmos L=0.13u W=0.42u AS=0.0378p AD=0.1428p
+ PS=0.6u PD=1.52u
M$18 \$32 \$66 VSS VSS sg13_lv_nmos L=0.13u W=0.74u AS=0.2516p AD=0.1406p
+ PS=2.16u PD=1.12u
M$19 VSS \$32 \$33 VSS sg13_lv_nmos L=0.13u W=0.74u AS=0.1406p AD=0.2516p
+ PS=1.12u PD=2.16u
M$20 \$37 \$69 VSS VSS sg13_lv_nmos L=0.13u W=0.74u AS=0.2886p AD=0.14875p
+ PS=2.26u PD=1.16u
M$21 VSS \$366 \$69 VSS sg13_lv_nmos L=0.13u W=0.55u AS=0.14875p AD=0.187p
+ PS=1.16u PD=1.78u
M$22 VSS clk_algo \$70 VSS sg13_lv_nmos L=0.13u W=0.55u AS=0.14875p AD=0.187p
+ PS=1.16u PD=1.78u
M$23 VSS \$70 \$38 VSS sg13_lv_nmos L=0.13u W=0.74u AS=0.14875p AD=0.2886p
+ PS=1.16u PD=2.26u
M$24 fclk_samp \$71 VSS VSS sg13_lv_nmos L=0.13u W=0.74u AS=0.2886p AD=0.14875p
+ PS=2.26u PD=1.16u
M$25 VSS \$90 \$71 VSS sg13_lv_nmos L=0.13u W=0.55u AS=0.14875p AD=0.187p
+ PS=1.16u PD=1.78u
M$26 \$68 \$72 VSS VSS sg13_lv_nmos L=0.13u W=0.74u AS=0.2886p AD=0.14875p
+ PS=2.26u PD=1.16u
M$27 VSS Om \$72 VSS sg13_lv_nmos L=0.13u W=0.55u AS=0.14875p AD=0.187p
+ PS=1.16u PD=1.78u
M$28 VSS \$91 \$73 VSS sg13_lv_nmos L=0.13u W=0.55u AS=0.14875p AD=0.187p
+ PS=1.16u PD=1.78u
M$29 VSS \$73 B[0] VSS sg13_lv_nmos L=0.13u W=0.74u AS=0.14875p AD=0.2886p
+ PS=1.16u PD=2.26u
M$30 VSS \$44 \$43 VSS sg13_lv_nmos L=0.13u W=0.55u AS=0.18945p AD=0.187p
+ PS=1.27u PD=1.78u
M$31 VSS \$44 \$74 VSS sg13_lv_nmos L=0.13u W=0.74u AS=0.18945p AD=0.13135p
+ PS=1.27u PD=1.095u
M$32 \$74 \$45 \$12 VSS sg13_lv_nmos L=0.13u W=0.74u AS=0.13135p AD=0.1628p
+ PS=1.095u PD=1.18u
M$33 \$12 \$46 \$75 VSS sg13_lv_nmos L=0.13u W=0.74u AS=0.1628p AD=0.3367p
+ PS=1.18u PD=1.65u
M$34 \$75 \$43 VSS VSS sg13_lv_nmos L=0.13u W=0.74u AS=0.3367p AD=0.148p
+ PS=1.65u PD=1.14u
M$35 VSS \$12 \$13 VSS sg13_lv_nmos L=0.13u W=0.74u AS=0.148p AD=0.4033p
+ PS=1.14u PD=2.57u
M$36 VSS \$15 \$14 VSS sg13_lv_nmos L=0.13u W=11.84u AS=2.3606p AD=2.2496p
+ PS=18.96u PD=17.92u
M$52 VSS fclk_in \$15 VSS sg13_lv_nmos L=0.13u W=4.44u AS=0.8436p AD=0.9546p
+ PS=6.72u PD=7.76u
M$58 VSS \$52 \$51 VSS sg13_lv_nmos L=0.13u W=0.74u AS=0.1898p AD=0.2516p
+ PS=1.36u PD=2.16u
M$59 VSS \$17 \$51 VSS sg13_lv_nmos L=0.13u W=0.74u AS=0.1898p AD=0.1406p
+ PS=1.36u PD=1.12u
M$60 \$51 \$50 \$87 VSS sg13_lv_nmos L=0.13u W=0.74u AS=0.1406p AD=0.2516p
+ PS=1.12u PD=2.16u
M$61 \$49 \$53 VSS VSS sg13_lv_nmos L=0.13u W=0.74u AS=0.2516p AD=0.1426p
+ PS=2.16u PD=1.16u
M$62 VSS \$54 \$53 VSS sg13_lv_nmos L=0.5u W=0.42u AS=0.1426p AD=0.1428p
+ PS=1.16u PD=1.52u
M$63 \$54 \$19 VSS VSS sg13_lv_nmos L=0.5u W=0.42u AS=0.1428p AD=0.0798p
+ PS=1.52u PD=0.8u
M$64 VSS \$55 \$19 VSS sg13_lv_nmos L=0.13u W=0.42u AS=0.0798p AD=0.1428p
+ PS=0.8u PD=1.52u
M$65 \$20 \$56 VSS VSS sg13_lv_nmos L=0.13u W=0.74u AS=0.2516p AD=0.1426p
+ PS=2.16u PD=1.16u
M$66 VSS \$57 \$56 VSS sg13_lv_nmos L=0.5u W=0.42u AS=0.1426p AD=0.1428p
+ PS=1.16u PD=1.52u
M$67 \$57 \$21 VSS VSS sg13_lv_nmos L=0.5u W=0.42u AS=0.1428p AD=0.0798p
+ PS=1.52u PD=0.8u
M$68 VSS \$87 \$21 VSS sg13_lv_nmos L=0.13u W=0.42u AS=0.0798p AD=0.1428p
+ PS=0.8u PD=1.52u
M$69 \$52 \$58 VSS VSS sg13_lv_nmos L=0.13u W=0.74u AS=0.2516p AD=0.1426p
+ PS=2.16u PD=1.16u
M$70 VSS \$59 \$58 VSS sg13_lv_nmos L=0.5u W=0.42u AS=0.1426p AD=0.1428p
+ PS=1.16u PD=1.52u
M$71 \$59 \$22 VSS VSS sg13_lv_nmos L=0.5u W=0.42u AS=0.1428p AD=0.0798p
+ PS=1.52u PD=0.8u
M$72 VSS \$60 \$22 VSS sg13_lv_nmos L=0.13u W=0.42u AS=0.0798p AD=0.1428p
+ PS=0.8u PD=1.52u
M$73 \$24 \$62 VSS VSS sg13_lv_nmos L=0.13u W=0.42u AS=0.1428p AD=0.0798p
+ PS=1.52u PD=0.8u
M$74 VSS \$24 \$25 VSS sg13_lv_nmos L=0.5u W=0.42u AS=0.0798p AD=0.1428p
+ PS=0.8u PD=1.52u
M$75 VSS \$25 \$63 VSS sg13_lv_nmos L=0.5u W=0.42u AS=0.1426p AD=0.1428p
+ PS=1.16u PD=1.52u
M$76 VSS \$63 \$26 VSS sg13_lv_nmos L=0.13u W=0.74u AS=0.1426p AD=0.2516p
+ PS=1.16u PD=2.16u
M$77 VSS \$325 \$64 VSS sg13_lv_nmos L=0.13u W=0.74u AS=0.2516p AD=0.2516p
+ PS=2.16u PD=2.16u
M$78 VSS \$10 \$67 VSS sg13_lv_nmos L=0.13u W=0.55u AS=0.17255p AD=0.187p
+ PS=1.25u PD=1.78u
M$79 VSS \$67 \$36 VSS sg13_lv_nmos L=0.13u W=0.74u AS=0.17255p AD=0.1406p
+ PS=1.25u PD=1.12u
M$80 \$36 \$68 VSS VSS sg13_lv_nmos L=0.13u W=0.74u AS=0.1406p AD=0.2516p
+ PS=1.12u PD=2.16u
M$81 VSS \$37 \$39 VSS sg13_lv_nmos L=0.13u W=0.74u AS=0.2516p AD=0.2516p
+ PS=2.16u PD=2.16u
M$82 VSS VDD VSS VSS sg13_lv_nmos L=1u W=249.9u AS=67.137p AD=67.137p
+ PS=700.64u PD=700.64u
M$90 VSS \$49 \$76 VSS sg13_lv_nmos L=0.13u W=0.74u AS=0.2886p AD=0.1406p
+ PS=2.26u PD=1.12u
M$91 \$76 \$47 \$77 VSS sg13_lv_nmos L=0.13u W=0.74u AS=0.1406p AD=0.1406p
+ PS=1.12u PD=1.12u
M$92 \$77 \$48 \$17 VSS sg13_lv_nmos L=0.13u W=0.74u AS=0.1406p AD=0.2516p
+ PS=1.12u PD=2.16u
M$93 VSS \$85 \$18 VSS sg13_lv_nmos L=0.13u W=0.74u AS=0.3108p AD=0.1628p
+ PS=2.32u PD=1.18u
M$94 \$18 \$49 \$78 VSS sg13_lv_nmos L=0.13u W=0.74u AS=0.1628p AD=0.0888p
+ PS=1.18u PD=0.98u
M$95 \$78 \$48 VSS VSS sg13_lv_nmos L=0.13u W=0.74u AS=0.0888p AD=0.15245p
+ PS=0.98u PD=1.17u
M$96 VSS \$49 \$85 VSS sg13_lv_nmos L=0.13u W=0.55u AS=0.15245p AD=0.174625p
+ PS=1.17u PD=1.185u
M$97 \$85 \$48 VSS VSS sg13_lv_nmos L=0.13u W=0.55u AS=0.174625p AD=0.374p
+ PS=1.185u PD=2.46u
M$98 VSS \$52 \$79 VSS sg13_lv_nmos L=0.13u W=0.64u AS=0.2272p AD=0.0784p
+ PS=1.99u PD=0.885u
M$99 \$79 \$17 \$50 VSS sg13_lv_nmos L=0.13u W=0.64u AS=0.0784p AD=0.2176p
+ PS=0.885u PD=1.96u
M$101 VSS \$64 \$81 VSS sg13_lv_nmos L=0.13u W=0.42u AS=0.1701p AD=0.0378p
+ PS=1.65u PD=0.6u
M$102 \$81 \$28 \$65 VSS sg13_lv_nmos L=0.13u W=0.42u AS=0.0378p AD=0.1428p
+ PS=0.6u PD=1.52u
M$103 \$27 \$29 \$88 VSS sg13_lv_nmos L=0.13u W=0.42u AS=0.1296p AD=0.0798p
+ PS=1.52u PD=0.8u
M$104 \$88 \$89 \$65 VSS sg13_lv_nmos L=0.13u W=0.42u AS=0.0798p AD=0.2373p
+ PS=0.8u PD=1.97u
M$105 VSS \$29 \$89 VSS sg13_lv_nmos L=0.13u W=0.74u AS=0.317325p AD=0.2516p
+ PS=1.805u PD=2.16u
M$106 VSS \$260 \$29 VSS sg13_lv_nmos L=0.13u W=0.74u AS=0.317325p AD=0.2516p
+ PS=1.805u PD=2.16u
M$107 \$66 \$29 \$30 VSS sg13_lv_nmos L=0.13u W=0.42u AS=0.12665p AD=0.1428p
+ PS=1.145u PD=1.52u
M$108 \$28 \$89 \$66 VSS sg13_lv_nmos L=0.13u W=0.74u AS=0.3473p AD=0.12665p
+ PS=2.71u PD=1.145u
M$135 \$131 \$135 \$133 VSS sg13_lv_nmos L=0.13u W=0.42u AS=0.1296p AD=0.0798p
+ PS=1.52u PD=0.8u
M$136 \$133 \$134 \$186 VSS sg13_lv_nmos L=0.13u W=0.42u AS=0.0798p AD=0.2373p
+ PS=0.8u PD=1.97u
M$137 \$138 \$142 \$140 VSS sg13_lv_nmos L=0.13u W=0.42u AS=0.1296p AD=0.0798p
+ PS=1.52u PD=0.8u
M$138 \$140 \$141 \$190 VSS sg13_lv_nmos L=0.13u W=0.42u AS=0.0798p AD=0.2373p
+ PS=0.8u PD=1.97u
M$139 \$145 \$149 \$147 VSS sg13_lv_nmos L=0.13u W=0.42u AS=0.1296p AD=0.0798p
+ PS=1.52u PD=0.8u
M$140 \$147 \$148 \$192 VSS sg13_lv_nmos L=0.13u W=0.42u AS=0.0798p AD=0.2373p
+ PS=0.8u PD=1.97u
M$141 \$155 \$159 \$157 VSS sg13_lv_nmos L=0.13u W=0.42u AS=0.1296p AD=0.0798p
+ PS=1.52u PD=0.8u
M$142 \$157 \$158 \$197 VSS sg13_lv_nmos L=0.13u W=0.42u AS=0.0798p AD=0.2373p
+ PS=0.8u PD=1.97u
M$143 \$162 \$166 \$164 VSS sg13_lv_nmos L=0.13u W=0.42u AS=0.1296p AD=0.0798p
+ PS=1.52u PD=0.8u
M$144 \$164 \$165 \$200 VSS sg13_lv_nmos L=0.13u W=0.42u AS=0.0798p AD=0.2373p
+ PS=0.8u PD=1.97u
M$145 \$172 \$176 \$174 VSS sg13_lv_nmos L=0.13u W=0.42u AS=0.1296p AD=0.0798p
+ PS=1.52u PD=0.8u
M$146 \$174 \$175 \$204 VSS sg13_lv_nmos L=0.13u W=0.42u AS=0.0798p AD=0.2373p
+ PS=0.8u PD=1.97u
M$147 \$134 \$135 VSS VSS sg13_lv_nmos L=0.13u W=0.74u AS=0.2516p AD=0.317325p
+ PS=2.16u PD=1.805u
M$148 VSS \$187 \$135 VSS sg13_lv_nmos L=0.13u W=0.74u AS=0.317325p AD=0.2516p
+ PS=1.805u PD=2.16u
M$149 \$188 \$135 \$136 VSS sg13_lv_nmos L=0.13u W=0.42u AS=0.1428p AD=0.12665p
+ PS=1.52u PD=1.145u
M$150 \$136 \$134 \$132 VSS sg13_lv_nmos L=0.13u W=0.74u AS=0.12665p AD=0.3473p
+ PS=1.145u PD=2.71u
M$151 \$141 \$142 VSS VSS sg13_lv_nmos L=0.13u W=0.74u AS=0.2516p AD=0.317325p
+ PS=2.16u PD=1.805u
M$152 VSS \$308 \$142 VSS sg13_lv_nmos L=0.13u W=0.74u AS=0.317325p AD=0.2516p
+ PS=1.805u PD=2.16u
M$153 \$191 \$142 \$143 VSS sg13_lv_nmos L=0.13u W=0.42u AS=0.1428p AD=0.12665p
+ PS=1.52u PD=1.145u
M$154 \$143 \$141 \$139 VSS sg13_lv_nmos L=0.13u W=0.74u AS=0.12665p AD=0.3473p
+ PS=1.145u PD=2.71u
M$155 \$148 \$149 VSS VSS sg13_lv_nmos L=0.13u W=0.74u AS=0.2516p AD=0.317325p
+ PS=2.16u PD=1.805u
M$156 VSS \$308 \$149 VSS sg13_lv_nmos L=0.13u W=0.74u AS=0.317325p AD=0.2516p
+ PS=1.805u PD=2.16u
M$157 \$193 \$149 \$150 VSS sg13_lv_nmos L=0.13u W=0.42u AS=0.1428p AD=0.12665p
+ PS=1.52u PD=1.145u
M$158 \$150 \$148 \$146 VSS sg13_lv_nmos L=0.13u W=0.74u AS=0.12665p AD=0.3473p
+ PS=1.145u PD=2.71u
M$159 \$158 \$159 VSS VSS sg13_lv_nmos L=0.13u W=0.74u AS=0.2516p AD=0.317325p
+ PS=2.16u PD=1.805u
M$160 VSS \$260 \$159 VSS sg13_lv_nmos L=0.13u W=0.74u AS=0.317325p AD=0.2516p
+ PS=1.805u PD=2.16u
M$161 \$198 \$159 \$160 VSS sg13_lv_nmos L=0.13u W=0.42u AS=0.1428p AD=0.12665p
+ PS=1.52u PD=1.145u
M$162 \$160 \$158 \$156 VSS sg13_lv_nmos L=0.13u W=0.74u AS=0.12665p AD=0.3473p
+ PS=1.145u PD=2.71u
M$163 VSS \$123 \$124 VSS sg13_lv_nmos L=0.13u W=0.74u AS=0.2516p AD=0.1406p
+ PS=2.16u PD=1.12u
M$164 \$124 \$44 \$234 VSS sg13_lv_nmos L=0.13u W=0.74u AS=0.1406p AD=0.1406p
+ PS=1.12u PD=1.12u
M$165 \$234 \$45 VSS VSS sg13_lv_nmos L=0.13u W=0.74u AS=0.1406p AD=0.2516p
+ PS=1.12u PD=2.16u
M$166 \$165 \$166 VSS VSS sg13_lv_nmos L=0.13u W=0.74u AS=0.2516p AD=0.317325p
+ PS=2.16u PD=1.805u
M$167 VSS \$201 \$166 VSS sg13_lv_nmos L=0.13u W=0.74u AS=0.317325p AD=0.2516p
+ PS=1.805u PD=2.16u
M$168 \$202 \$166 \$167 VSS sg13_lv_nmos L=0.13u W=0.42u AS=0.1428p AD=0.12665p
+ PS=1.52u PD=1.145u
M$169 \$167 \$165 \$163 VSS sg13_lv_nmos L=0.13u W=0.74u AS=0.12665p AD=0.3473p
+ PS=1.145u PD=2.71u
M$170 \$175 \$176 VSS VSS sg13_lv_nmos L=0.13u W=0.74u AS=0.2516p AD=0.317325p
+ PS=2.16u PD=1.805u
M$171 VSS \$201 \$176 VSS sg13_lv_nmos L=0.13u W=0.74u AS=0.317325p AD=0.2516p
+ PS=1.805u PD=2.16u
M$172 \$205 \$176 \$177 VSS sg13_lv_nmos L=0.13u W=0.42u AS=0.1428p AD=0.12665p
+ PS=1.52u PD=1.145u
M$173 \$177 \$175 \$173 VSS sg13_lv_nmos L=0.13u W=0.74u AS=0.12665p AD=0.3473p
+ PS=1.145u PD=2.71u
M$174 VSS \$185 \$109 VSS sg13_lv_nmos L=0.13u W=0.55u AS=0.14875p AD=0.187p
+ PS=1.16u PD=1.78u
M$175 BN[1] \$109 VSS VSS sg13_lv_nmos L=0.13u W=0.74u AS=0.2886p AD=0.14875p
+ PS=2.26u PD=1.16u
M$188 \$110 \$130 VSS VSS sg13_lv_nmos L=0.13u W=0.74u AS=0.2516p AD=0.2516p
+ PS=2.16u PD=2.16u
M$189 VSS \$305 \$111 VSS sg13_lv_nmos L=0.13u W=0.55u AS=0.14875p AD=0.187p
+ PS=1.16u PD=1.78u
M$190 \$83 \$111 VSS VSS sg13_lv_nmos L=0.13u W=0.74u AS=0.2886p AD=0.14875p
+ PS=2.26u PD=1.16u
M$191 \$112 \$136 VSS VSS sg13_lv_nmos L=0.13u W=0.74u AS=0.2516p AD=0.1406p
+ PS=2.16u PD=1.12u
M$192 VSS \$112 \$46 VSS sg13_lv_nmos L=0.13u W=0.74u AS=0.1406p AD=0.2516p
+ PS=1.12u PD=2.16u
M$193 VSS \$189 \$113 VSS sg13_lv_nmos L=0.13u W=0.55u AS=0.14875p AD=0.187p
+ PS=1.16u PD=1.78u
M$194 \$130 \$113 VSS VSS sg13_lv_nmos L=0.13u W=0.74u AS=0.2886p AD=0.14875p
+ PS=2.26u PD=1.16u
M$195 \$115 \$143 VSS VSS sg13_lv_nmos L=0.13u W=0.74u AS=0.2516p AD=0.1406p
+ PS=2.16u PD=1.12u
M$196 VSS \$115 \$55 VSS sg13_lv_nmos L=0.13u W=0.74u AS=0.1406p AD=0.2516p
+ PS=1.12u PD=2.16u
M$197 \$117 \$150 VSS VSS sg13_lv_nmos L=0.13u W=0.74u AS=0.2516p AD=0.1406p
+ PS=2.16u PD=1.12u
M$198 VSS \$117 \$60 VSS sg13_lv_nmos L=0.13u W=0.74u AS=0.1406p AD=0.2516p
+ PS=1.12u PD=2.16u
M$199 \$153 \$118 VSS VSS sg13_lv_nmos L=0.5u W=0.42u AS=0.1428p AD=0.1426p
+ PS=1.52u PD=1.16u
M$200 VSS \$153 \$119 VSS sg13_lv_nmos L=0.13u W=0.74u AS=0.1426p AD=0.2516p
+ PS=1.16u PD=2.16u
M$201 VSS \$35 \$154 VSS sg13_lv_nmos L=0.13u W=0.55u AS=0.17255p AD=0.187p
+ PS=1.25u PD=1.78u
M$202 VSS \$26 \$120 VSS sg13_lv_nmos L=0.13u W=0.74u AS=0.2516p AD=0.1406p
+ PS=2.16u PD=1.12u
M$203 \$120 \$154 VSS VSS sg13_lv_nmos L=0.13u W=0.74u AS=0.1406p AD=0.17255p
+ PS=1.12u PD=1.25u
M$204 \$121 \$160 VSS VSS sg13_lv_nmos L=0.13u W=0.74u AS=0.2516p AD=0.1406p
+ PS=2.16u PD=1.12u
M$205 VSS \$121 \$122 VSS sg13_lv_nmos L=0.13u W=0.74u AS=0.1406p AD=0.2516p
+ PS=1.12u PD=2.16u
M$206 VSS \$44 \$123 VSS sg13_lv_nmos L=0.13u W=0.74u AS=0.2516p AD=0.1406p
+ PS=2.16u PD=1.12u
M$207 \$123 \$91 VSS VSS sg13_lv_nmos L=0.13u W=0.74u AS=0.1406p AD=0.2516p
+ PS=1.12u PD=2.16u
M$208 \$126 \$167 VSS VSS sg13_lv_nmos L=0.13u W=0.74u AS=0.2516p AD=0.1406p
+ PS=2.16u PD=1.12u
M$209 VSS \$126 \$91 VSS sg13_lv_nmos L=0.13u W=0.74u AS=0.1406p AD=0.2516p
+ PS=1.12u PD=2.16u
M$212 \$169 \$625 VSS VSS sg13_lv_nmos L=0.13u W=0.55u AS=0.187p AD=0.18945p
+ PS=1.78u PD=1.27u
M$213 VSS \$625 \$240 VSS sg13_lv_nmos L=0.13u W=0.74u AS=0.18945p AD=0.13135p
+ PS=1.27u PD=1.095u
M$214 \$240 \$329 \$170 VSS sg13_lv_nmos L=0.13u W=0.74u AS=0.13135p AD=0.1628p
+ PS=1.095u PD=1.18u
M$215 \$170 \$203 \$241 VSS sg13_lv_nmos L=0.13u W=0.74u AS=0.1628p AD=0.3367p
+ PS=1.18u PD=1.65u
M$216 \$241 \$169 VSS VSS sg13_lv_nmos L=0.13u W=0.74u AS=0.3367p AD=0.148p
+ PS=1.65u PD=1.14u
M$217 VSS \$170 \$171 VSS sg13_lv_nmos L=0.13u W=0.74u AS=0.148p AD=0.4033p
+ PS=1.14u PD=2.57u
M$218 \$127 \$177 VSS VSS sg13_lv_nmos L=0.13u W=0.74u AS=0.2516p AD=0.1406p
+ PS=2.16u PD=1.12u
M$219 VSS \$127 \$203 VSS sg13_lv_nmos L=0.13u W=0.74u AS=0.1406p AD=0.2516p
+ PS=1.12u PD=2.16u
M$230 \$128 \$203 VSS VSS sg13_lv_nmos L=0.13u W=0.55u AS=0.187p AD=0.14875p
+ PS=1.78u PD=1.16u
M$231 VSS \$128 B[1] VSS sg13_lv_nmos L=0.13u W=0.74u AS=0.14875p AD=0.2886p
+ PS=1.16u PD=2.26u
M$232 VSS \$130 \$242 VSS sg13_lv_nmos L=0.13u W=0.74u AS=0.2516p AD=0.2516p
+ PS=2.16u PD=2.16u
M$233 VSS \$133 \$132 VSS sg13_lv_nmos L=0.13u W=0.74u AS=0.1626p AD=0.2516p
+ PS=1.415u PD=2.16u
M$234 \$131 \$13 \$221 VSS sg13_lv_nmos L=0.13u W=0.42u AS=0.1428p AD=0.0609p
+ PS=1.52u PD=0.71u
M$235 VSS \$110 \$221 VSS sg13_lv_nmos L=0.13u W=0.42u AS=0.1626p AD=0.0609p
+ PS=1.415u PD=0.71u
M$236 \$264 \$261 \$282 VSS sg13_lv_nmos L=0.13u W=0.42u AS=0.1428p AD=0.0609p
+ PS=1.52u PD=0.71u
M$237 \$282 \$242 VSS VSS sg13_lv_nmos L=0.13u W=0.42u AS=0.0609p AD=0.1626p
+ PS=0.71u PD=1.415u
M$238 VSS \$262 \$243 VSS sg13_lv_nmos L=0.13u W=0.74u AS=0.1626p AD=0.2516p
+ PS=1.415u PD=2.16u
M$239 VSS \$110 \$222 VSS sg13_lv_nmos L=0.13u W=0.42u AS=0.1701p AD=0.0378p
+ PS=1.65u PD=0.6u
M$240 \$222 \$132 \$186 VSS sg13_lv_nmos L=0.13u W=0.42u AS=0.0378p AD=0.1428p
+ PS=0.6u PD=1.52u
M$241 \$245 \$246 VSS VSS sg13_lv_nmos L=0.13u W=0.42u AS=0.1428p AD=0.0798p
+ PS=1.52u PD=0.8u
M$242 VSS \$242 \$284 VSS sg13_lv_nmos L=0.13u W=0.42u AS=0.0798p AD=0.0378p
+ PS=0.8u PD=0.6u
M$243 \$284 \$266 \$246 VSS sg13_lv_nmos L=0.13u W=0.42u AS=0.0378p AD=0.1428p
+ PS=0.6u PD=1.52u
M$244 \$188 \$137 VSS VSS sg13_lv_nmos L=0.13u W=0.42u AS=0.1428p AD=0.0798p
+ PS=1.52u PD=0.8u
M$245 VSS \$110 \$223 VSS sg13_lv_nmos L=0.13u W=0.42u AS=0.0798p AD=0.0378p
+ PS=0.8u PD=0.6u
M$246 \$223 \$136 \$137 VSS sg13_lv_nmos L=0.13u W=0.42u AS=0.0378p AD=0.1428p
+ PS=0.6u PD=1.52u
M$247 \$247 \$266 VSS VSS sg13_lv_nmos L=0.13u W=0.74u AS=0.2516p AD=0.1406p
+ PS=2.16u PD=1.12u
M$248 VSS \$247 \$185 VSS sg13_lv_nmos L=0.13u W=0.74u AS=0.1406p AD=0.2516p
+ PS=1.12u PD=2.16u
M$249 VSS En \$267 VSS sg13_lv_nmos L=0.13u W=0.55u AS=0.14875p AD=0.187p
+ PS=1.16u PD=1.78u
M$250 VSS \$267 \$48 VSS sg13_lv_nmos L=0.13u W=0.74u AS=0.14875p AD=0.2886p
+ PS=1.16u PD=2.26u
M$251 VSS \$140 \$139 VSS sg13_lv_nmos L=0.13u W=0.74u AS=0.1626p AD=0.2516p
+ PS=1.415u PD=2.16u
M$252 \$138 \$18 \$224 VSS sg13_lv_nmos L=0.13u W=0.42u AS=0.1428p AD=0.0609p
+ PS=1.52u PD=0.71u
M$253 VSS \$114 \$224 VSS sg13_lv_nmos L=0.13u W=0.42u AS=0.1626p AD=0.0609p
+ PS=1.415u PD=0.71u
M$254 \$187 \$268 VSS VSS sg13_lv_nmos L=0.13u W=0.74u AS=0.2886p AD=0.14875p
+ PS=2.26u PD=1.16u
M$255 VSS \$469 \$268 VSS sg13_lv_nmos L=0.13u W=0.55u AS=0.14875p AD=0.187p
+ PS=1.16u PD=1.78u
M$256 VSS \$114 \$225 VSS sg13_lv_nmos L=0.13u W=0.42u AS=0.1701p AD=0.0378p
+ PS=1.65u PD=0.6u
M$257 \$225 \$139 \$190 VSS sg13_lv_nmos L=0.13u W=0.42u AS=0.0378p AD=0.1428p
+ PS=0.6u PD=1.52u
M$258 \$114 \$130 VSS VSS sg13_lv_nmos L=0.13u W=0.74u AS=0.2516p AD=0.2516p
+ PS=2.16u PD=2.16u
M$259 \$273 \$270 \$285 VSS sg13_lv_nmos L=0.13u W=0.42u AS=0.1428p AD=0.0609p
+ PS=1.52u PD=0.71u
M$260 \$285 \$269 VSS VSS sg13_lv_nmos L=0.13u W=0.42u AS=0.0609p AD=0.1626p
+ PS=0.71u PD=1.415u
M$261 VSS \$271 \$248 VSS sg13_lv_nmos L=0.13u W=0.74u AS=0.1626p AD=0.2516p
+ PS=1.415u PD=2.16u
M$262 \$191 \$144 VSS VSS sg13_lv_nmos L=0.13u W=0.42u AS=0.1428p AD=0.0798p
+ PS=1.52u PD=0.8u
M$263 VSS \$114 \$226 VSS sg13_lv_nmos L=0.13u W=0.42u AS=0.0798p AD=0.0378p
+ PS=0.8u PD=0.6u
M$264 \$226 \$143 \$144 VSS sg13_lv_nmos L=0.13u W=0.42u AS=0.0378p AD=0.1428p
+ PS=0.6u PD=1.52u
M$265 VSS \$147 \$146 VSS sg13_lv_nmos L=0.13u W=0.74u AS=0.1626p AD=0.2516p
+ PS=1.415u PD=2.16u
M$266 \$145 \$20 \$227 VSS sg13_lv_nmos L=0.13u W=0.42u AS=0.1428p AD=0.0609p
+ PS=1.52u PD=0.71u
M$267 VSS \$116 \$227 VSS sg13_lv_nmos L=0.13u W=0.42u AS=0.1626p AD=0.0609p
+ PS=1.415u PD=0.71u
M$268 \$250 \$251 VSS VSS sg13_lv_nmos L=0.13u W=0.42u AS=0.1428p AD=0.0798p
+ PS=1.52u PD=0.8u
M$269 VSS \$269 \$287 VSS sg13_lv_nmos L=0.13u W=0.42u AS=0.0798p AD=0.0378p
+ PS=0.8u PD=0.6u
M$270 \$287 \$275 \$251 VSS sg13_lv_nmos L=0.13u W=0.42u AS=0.0378p AD=0.1428p
+ PS=0.6u PD=1.52u
M$271 VSS \$116 \$228 VSS sg13_lv_nmos L=0.13u W=0.42u AS=0.1701p AD=0.0378p
+ PS=1.65u PD=0.6u
M$272 \$228 \$146 \$192 VSS sg13_lv_nmos L=0.13u W=0.42u AS=0.0378p AD=0.1428p
+ PS=0.6u PD=1.52u
M$273 \$252 \$275 VSS VSS sg13_lv_nmos L=0.13u W=0.74u AS=0.2516p AD=0.1406p
+ PS=2.16u PD=1.12u
M$274 VSS \$252 \$253 VSS sg13_lv_nmos L=0.13u W=0.74u AS=0.1406p AD=0.2516p
+ PS=1.12u PD=2.16u
M$275 \$47 \$276 VSS VSS sg13_lv_nmos L=0.13u W=0.74u AS=0.2516p AD=0.1426p
+ PS=2.16u PD=1.16u
M$276 VSS \$277 \$276 VSS sg13_lv_nmos L=0.5u W=0.42u AS=0.1426p AD=0.1428p
+ PS=1.16u PD=1.52u
M$277 \$277 \$254 VSS VSS sg13_lv_nmos L=0.5u W=0.42u AS=0.1428p AD=0.0798p
+ PS=1.52u PD=0.8u
M$278 VSS \$253 \$254 VSS sg13_lv_nmos L=0.13u W=0.42u AS=0.0798p AD=0.1428p
+ PS=0.8u PD=1.52u
M$279 \$193 \$151 VSS VSS sg13_lv_nmos L=0.13u W=0.42u AS=0.1428p AD=0.0798p
+ PS=1.52u PD=0.8u
M$280 VSS \$116 \$229 VSS sg13_lv_nmos L=0.13u W=0.42u AS=0.0798p AD=0.0378p
+ PS=0.8u PD=0.6u
M$281 \$229 \$150 \$151 VSS sg13_lv_nmos L=0.13u W=0.42u AS=0.0378p AD=0.1428p
+ PS=0.6u PD=1.52u
M$282 VSS \$256 \$255 VSS sg13_lv_nmos L=0.13u W=11.84u AS=2.3606p AD=2.2496p
+ PS=18.96u PD=17.92u
M$298 VSS \$370 \$256 VSS sg13_lv_nmos L=0.13u W=4.44u AS=0.8436p AD=0.9546p
+ PS=6.72u PD=7.76u
M$304 \$152 \$194 VSS VSS sg13_lv_nmos L=0.13u W=0.42u AS=0.1428p AD=0.0798p
+ PS=1.52u PD=0.8u
M$305 VSS \$152 \$118 VSS sg13_lv_nmos L=0.5u W=0.42u AS=0.0798p AD=0.1428p
+ PS=0.8u PD=1.52u
M$306 VSS \$157 \$156 VSS sg13_lv_nmos L=0.13u W=0.74u AS=0.1626p AD=0.2516p
+ PS=1.415u PD=2.16u
M$307 \$155 \$196 \$231 VSS sg13_lv_nmos L=0.13u W=0.42u AS=0.1428p AD=0.0609p
+ PS=1.52u PD=0.71u
M$308 VSS \$195 \$231 VSS sg13_lv_nmos L=0.13u W=0.42u AS=0.1626p AD=0.0609p
+ PS=1.415u PD=0.71u
M$309 VSS \$195 \$232 VSS sg13_lv_nmos L=0.13u W=0.42u AS=0.1701p AD=0.0378p
+ PS=1.65u PD=0.6u
M$310 \$232 \$156 \$197 VSS sg13_lv_nmos L=0.13u W=0.42u AS=0.0378p AD=0.1428p
+ PS=0.6u PD=1.52u
M$311 \$257 \$278 VSS VSS sg13_lv_nmos L=0.13u W=0.74u AS=0.2516p AD=0.1426p
+ PS=2.16u PD=1.16u
M$312 VSS \$279 \$278 VSS sg13_lv_nmos L=0.5u W=0.42u AS=0.1426p AD=0.1428p
+ PS=1.16u PD=1.52u
M$313 \$279 \$258 VSS VSS sg13_lv_nmos L=0.5u W=0.42u AS=0.1428p AD=0.0798p
+ PS=1.52u PD=0.8u
M$314 VSS \$122 \$258 VSS sg13_lv_nmos L=0.13u W=0.42u AS=0.0798p AD=0.1428p
+ PS=0.8u PD=1.52u
M$315 VSS \$255 \$259 VSS sg13_lv_nmos L=0.13u W=4.44u AS=0.9546p AD=0.8436p
+ PS=7.76u PD=6.72u
M$321 VSS \$259 \$260 VSS sg13_lv_nmos L=0.13u W=11.84u AS=2.2496p AD=2.3606p
+ PS=17.92u PD=18.96u
M$337 \$198 \$161 VSS VSS sg13_lv_nmos L=0.13u W=0.42u AS=0.1428p AD=0.0798p
+ PS=1.52u PD=0.8u
M$338 VSS \$195 \$233 VSS sg13_lv_nmos L=0.13u W=0.42u AS=0.0798p AD=0.0378p
+ PS=0.8u PD=0.6u
M$339 \$233 \$160 \$161 VSS sg13_lv_nmos L=0.13u W=0.42u AS=0.0378p AD=0.1428p
+ PS=0.6u PD=1.52u
M$340 VSS \$164 \$163 VSS sg13_lv_nmos L=0.13u W=0.74u AS=0.1626p AD=0.2516p
+ PS=1.415u PD=2.16u
M$341 \$162 \$124 \$235 VSS sg13_lv_nmos L=0.13u W=0.42u AS=0.1428p AD=0.0609p
+ PS=1.52u PD=0.71u
M$342 VSS \$199 \$235 VSS sg13_lv_nmos L=0.13u W=0.42u AS=0.1626p AD=0.0609p
+ PS=1.415u PD=0.71u
M$343 VSS \$199 \$236 VSS sg13_lv_nmos L=0.13u W=0.42u AS=0.1701p AD=0.0378p
+ PS=1.65u PD=0.6u
M$344 \$236 \$163 \$200 VSS sg13_lv_nmos L=0.13u W=0.42u AS=0.0378p AD=0.1428p
+ PS=0.6u PD=1.52u
M$345 \$45 \$280 \$288 VSS sg13_lv_nmos L=0.13u W=0.74u AS=0.333p AD=0.1406p
+ PS=2.38u PD=1.12u
M$346 \$288 \$10 VSS VSS sg13_lv_nmos L=0.13u W=0.74u AS=0.1406p AD=0.14505p
+ PS=1.12u PD=1.15u
M$347 VSS \$68 \$280 VSS sg13_lv_nmos L=0.13u W=0.55u AS=0.14505p AD=0.187p
+ PS=1.15u PD=1.78u
M$348 \$199 \$37 VSS VSS sg13_lv_nmos L=0.13u W=0.74u AS=0.2516p AD=0.2516p
+ PS=2.16u PD=2.16u
M$349 \$202 \$168 VSS VSS sg13_lv_nmos L=0.13u W=0.42u AS=0.1428p AD=0.0798p
+ PS=1.52u PD=0.8u
M$350 VSS \$199 \$239 VSS sg13_lv_nmos L=0.13u W=0.42u AS=0.0798p AD=0.0378p
+ PS=0.8u PD=0.6u
M$351 \$239 \$167 \$168 VSS sg13_lv_nmos L=0.13u W=0.42u AS=0.0378p AD=0.1428p
+ PS=0.6u PD=1.52u
M$352 VSS \$174 \$173 VSS sg13_lv_nmos L=0.13u W=0.74u AS=0.1626p AD=0.2516p
+ PS=1.415u PD=2.16u
M$353 \$172 \$171 \$238 VSS sg13_lv_nmos L=0.13u W=0.42u AS=0.1428p AD=0.0609p
+ PS=1.52u PD=0.71u
M$354 VSS \$39 \$238 VSS sg13_lv_nmos L=0.13u W=0.42u AS=0.1626p AD=0.0609p
+ PS=1.415u PD=0.71u
M$355 VSS \$39 \$237 VSS sg13_lv_nmos L=0.13u W=0.42u AS=0.1701p AD=0.0378p
+ PS=1.65u PD=0.6u
M$356 \$237 \$173 \$204 VSS sg13_lv_nmos L=0.13u W=0.42u AS=0.0378p AD=0.1428p
+ PS=0.6u PD=1.52u
M$357 \$201 \$281 VSS VSS sg13_lv_nmos L=0.13u W=0.74u AS=0.2886p AD=0.14875p
+ PS=2.26u PD=1.16u
M$358 VSS \$38 \$281 VSS sg13_lv_nmos L=0.13u W=0.55u AS=0.14875p AD=0.187p
+ PS=1.16u PD=1.78u
M$359 \$205 \$178 VSS VSS sg13_lv_nmos L=0.13u W=0.42u AS=0.1428p AD=0.0798p
+ PS=1.52u PD=0.8u
M$360 VSS \$39 \$230 VSS sg13_lv_nmos L=0.13u W=0.42u AS=0.0798p AD=0.0378p
+ PS=0.8u PD=0.6u
M$361 \$230 \$177 \$178 VSS sg13_lv_nmos L=0.13u W=0.42u AS=0.0378p AD=0.1428p
+ PS=0.6u PD=1.52u
M$377 VSS \$242 \$283 VSS sg13_lv_nmos L=0.13u W=0.42u AS=0.1701p AD=0.0378p
+ PS=1.65u PD=0.6u
M$378 \$283 \$243 \$263 VSS sg13_lv_nmos L=0.13u W=0.42u AS=0.0378p AD=0.1428p
+ PS=0.6u PD=1.52u
M$379 \$264 \$244 \$262 VSS sg13_lv_nmos L=0.13u W=0.42u AS=0.1296p AD=0.0798p
+ PS=1.52u PD=0.8u
M$380 \$262 \$265 \$263 VSS sg13_lv_nmos L=0.13u W=0.42u AS=0.0798p AD=0.2373p
+ PS=0.8u PD=1.97u
M$381 VSS \$244 \$265 VSS sg13_lv_nmos L=0.13u W=0.74u AS=0.317325p AD=0.2516p
+ PS=1.805u PD=2.16u
M$382 VSS \$187 \$244 VSS sg13_lv_nmos L=0.13u W=0.74u AS=0.317325p AD=0.2516p
+ PS=1.805u PD=2.16u
M$383 \$266 \$244 \$245 VSS sg13_lv_nmos L=0.13u W=0.42u AS=0.12665p AD=0.1428p
+ PS=1.145u PD=1.52u
M$384 \$243 \$265 \$266 VSS sg13_lv_nmos L=0.13u W=0.74u AS=0.3473p AD=0.12665p
+ PS=2.71u PD=1.145u
M$385 VSS \$269 \$286 VSS sg13_lv_nmos L=0.13u W=0.42u AS=0.1701p AD=0.0378p
+ PS=1.65u PD=0.6u
M$386 \$286 \$248 \$272 VSS sg13_lv_nmos L=0.13u W=0.42u AS=0.0378p AD=0.1428p
+ PS=0.6u PD=1.52u
M$387 \$273 \$249 \$271 VSS sg13_lv_nmos L=0.13u W=0.42u AS=0.1296p AD=0.0798p
+ PS=1.52u PD=0.8u
M$388 \$271 \$274 \$272 VSS sg13_lv_nmos L=0.13u W=0.42u AS=0.0798p AD=0.2373p
+ PS=0.8u PD=1.97u
M$389 VSS \$249 \$274 VSS sg13_lv_nmos L=0.13u W=0.74u AS=0.317325p AD=0.2516p
+ PS=1.805u PD=2.16u
M$390 VSS \$308 \$249 VSS sg13_lv_nmos L=0.13u W=0.74u AS=0.317325p AD=0.2516p
+ PS=1.805u PD=2.16u
M$391 \$275 \$249 \$250 VSS sg13_lv_nmos L=0.13u W=0.42u AS=0.12665p AD=0.1428p
+ PS=1.145u PD=1.52u
M$392 \$248 \$274 \$275 VSS sg13_lv_nmos L=0.13u W=0.74u AS=0.3473p AD=0.12665p
+ PS=2.71u PD=1.145u
M$393 \$312 \$257 \$350 VSS sg13_lv_nmos L=0.13u W=0.64u AS=0.2176p AD=0.1216p
+ PS=1.96u PD=1.02u
M$394 \$350 \$119 VSS VSS sg13_lv_nmos L=0.13u W=0.64u AS=0.1216p AD=0.1331p
+ PS=1.02u PD=1.12u
M$395 VSS \$312 \$196 VSS sg13_lv_nmos L=0.13u W=0.74u AS=0.1331p AD=0.2516p
+ PS=1.12u PD=2.16u
M$396 \$313 \$326 \$315 VSS sg13_lv_nmos L=0.13u W=0.42u AS=0.1296p AD=0.0798p
+ PS=1.52u PD=0.8u
M$397 \$315 \$316 \$335 VSS sg13_lv_nmos L=0.13u W=0.42u AS=0.0798p AD=0.2373p
+ PS=0.8u PD=1.97u
M$426 \$62 \$194 VSS VSS sg13_lv_nmos L=0.13u W=0.77u AS=0.2618p AD=0.1463p
+ PS=2.22u PD=1.15u
M$427 VSS \$90 \$62 VSS sg13_lv_nmos L=0.13u W=0.77u AS=0.1463p AD=0.1694p
+ PS=1.15u PD=1.21u
M$428 \$62 \$257 VSS VSS sg13_lv_nmos L=0.13u W=0.77u AS=0.1694p AD=0.2618p
+ PS=1.21u PD=2.22u
M$429 \$316 \$326 VSS VSS sg13_lv_nmos L=0.13u W=0.74u AS=0.2516p AD=0.317325p
+ PS=2.16u PD=1.805u
M$430 VSS \$260 \$326 VSS sg13_lv_nmos L=0.13u W=0.74u AS=0.317325p AD=0.2516p
+ PS=1.805u PD=2.16u
M$431 \$336 \$326 \$327 VSS sg13_lv_nmos L=0.13u W=0.42u AS=0.1428p AD=0.12665p
+ PS=1.52u PD=1.145u
M$432 \$327 \$316 \$314 VSS sg13_lv_nmos L=0.13u W=0.74u AS=0.12665p AD=0.3473p
+ PS=1.145u PD=2.71u
M$433 VSS \$14 \$304 VSS sg13_lv_nmos L=0.13u W=4.44u AS=0.9546p AD=0.8436p
+ PS=7.76u PD=6.72u
M$439 VSS \$304 \$305 VSS sg13_lv_nmos L=0.13u W=11.84u AS=2.2496p AD=2.3606p
+ PS=17.92u PD=18.96u
M$455 VSS \$307 \$302 VSS sg13_lv_nmos L=0.13u W=0.55u AS=0.18945p AD=0.187p
+ PS=1.27u PD=1.78u
M$456 \$306 \$323 VSS VSS sg13_lv_nmos L=0.13u W=0.74u AS=0.4033p AD=0.148p
+ PS=2.57u PD=1.14u
M$457 VSS \$302 \$341 VSS sg13_lv_nmos L=0.13u W=0.74u AS=0.148p AD=0.3367p
+ PS=1.14u PD=1.65u
M$458 \$341 \$383 \$323 VSS sg13_lv_nmos L=0.13u W=0.74u AS=0.3367p AD=0.1628p
+ PS=1.65u PD=1.18u
M$459 \$323 \$45 \$342 VSS sg13_lv_nmos L=0.13u W=0.74u AS=0.1628p AD=0.13135p
+ PS=1.18u PD=1.095u
M$460 \$342 \$307 VSS VSS sg13_lv_nmos L=0.13u W=0.74u AS=0.13135p AD=0.18945p
+ PS=1.095u PD=1.27u
M$461 VSS \$130 \$269 VSS sg13_lv_nmos L=0.13u W=0.74u AS=0.2516p AD=0.2516p
+ PS=2.16u PD=2.16u
M$462 VSS \$303 \$308 VSS sg13_lv_nmos L=0.13u W=11.84u AS=2.3606p AD=2.2496p
+ PS=18.96u PD=17.92u
M$478 VSS \$255 \$303 VSS sg13_lv_nmos L=0.13u W=4.44u AS=0.8436p AD=0.9546p
+ PS=6.72u PD=7.76u
M$484 VSS \$55 \$344 VSS sg13_lv_nmos L=0.13u W=0.74u AS=0.2516p AD=0.1406p
+ PS=2.16u PD=1.12u
M$485 \$344 \$47 \$345 VSS sg13_lv_nmos L=0.13u W=0.74u AS=0.1406p AD=0.1406p
+ PS=1.12u PD=1.12u
M$486 \$345 \$52 \$346 VSS sg13_lv_nmos L=0.13u W=0.74u AS=0.1406p AD=0.1406p
+ PS=1.12u PD=1.12u
M$487 \$346 \$48 \$194 VSS sg13_lv_nmos L=0.13u W=0.74u AS=0.1406p AD=0.2516p
+ PS=1.12u PD=2.16u
M$488 \$309 \$48 \$347 VSS sg13_lv_nmos L=0.13u W=0.74u AS=0.2516p AD=0.1406p
+ PS=2.16u PD=1.12u
M$489 \$347 \$90 VSS VSS sg13_lv_nmos L=0.13u W=0.74u AS=0.1406p AD=0.2516p
+ PS=1.12u PD=2.16u
M$490 \$310 \$391 VSS VSS sg13_lv_nmos L=0.13u W=0.55u AS=0.187p AD=0.18575p
+ PS=1.78u PD=1.26u
M$491 VSS \$48 \$349 VSS sg13_lv_nmos L=0.13u W=0.74u AS=0.18575p AD=0.1406p
+ PS=1.26u PD=1.12u
M$492 \$349 \$318 \$348 VSS sg13_lv_nmos L=0.13u W=0.74u AS=0.1406p AD=0.1406p
+ PS=1.12u PD=1.12u
M$493 \$348 \$310 \$311 VSS sg13_lv_nmos L=0.13u W=0.74u AS=0.1406p AD=0.3404p
+ PS=1.12u PD=2.4u
M$494 VSS \$325 \$195 VSS sg13_lv_nmos L=0.13u W=0.74u AS=0.2516p AD=0.2516p
+ PS=2.16u PD=2.16u
M$495 VSS \$37 \$321 VSS sg13_lv_nmos L=0.13u W=0.74u AS=0.2516p AD=0.2516p
+ PS=2.16u PD=2.16u
M$498 BN[2] \$382 VSS VSS sg13_lv_nmos L=0.13u W=0.74u AS=0.2886p AD=0.14875p
+ PS=2.26u PD=1.16u
M$499 VSS \$383 \$382 VSS sg13_lv_nmos L=0.13u W=0.55u AS=0.14875p AD=0.187p
+ PS=1.16u PD=1.78u
M$512 \$359 \$306 \$409 VSS sg13_lv_nmos L=0.13u W=0.42u AS=0.1428p AD=0.0609p
+ PS=1.52u PD=0.71u
M$513 \$409 \$358 VSS VSS sg13_lv_nmos L=0.13u W=0.42u AS=0.0609p AD=0.1626p
+ PS=0.71u PD=1.415u
M$514 VSS \$385 \$360 VSS sg13_lv_nmos L=0.13u W=0.74u AS=0.1626p AD=0.2516p
+ PS=1.415u PD=2.16u
M$516 \$362 \$363 VSS VSS sg13_lv_nmos L=0.13u W=0.42u AS=0.1428p AD=0.0798p
+ PS=1.52u PD=0.8u
M$517 VSS \$358 \$411 VSS sg13_lv_nmos L=0.13u W=0.42u AS=0.0798p AD=0.0378p
+ PS=0.8u PD=0.6u
M$518 \$411 \$387 \$363 VSS sg13_lv_nmos L=0.13u W=0.42u AS=0.0378p AD=0.1428p
+ PS=0.6u PD=1.52u
M$519 \$364 \$387 VSS VSS sg13_lv_nmos L=0.13u W=0.74u AS=0.2516p AD=0.1406p
+ PS=2.16u PD=1.12u
M$520 VSS \$364 \$383 VSS sg13_lv_nmos L=0.13u W=0.74u AS=0.1406p AD=0.2516p
+ PS=1.12u PD=2.16u
M$521 \$366 \$392 VSS VSS sg13_lv_nmos L=0.13u W=0.74u AS=0.2886p AD=0.14875p
+ PS=2.26u PD=1.16u
M$522 VSS \$23 \$392 VSS sg13_lv_nmos L=0.13u W=0.55u AS=0.14875p AD=0.187p
+ PS=1.16u PD=1.78u
M$523 VSS \$366 \$393 VSS sg13_lv_nmos L=0.13u W=0.55u AS=0.14875p AD=0.187p